*SPICE netlist created from BLIF module fp_divider by blif2BSpice
.include /usr/local/share/qflow/tech/osu035/osu035_stdcells.sp
.subckt fp_divider vdd gnd input_a<0> input_a<1> input_a<2> input_a<3> input_a<4> input_a<5> input_a<6> input_a<7> input_a<8> input_a<9> input_a<10> input_a<11> input_a<12> input_a<13> input_a<14> input_a<15> input_a<16> input_a<17> input_a<18> input_a<19> input_a<20> input_a<21> input_a<22> input_a<23> input_a<24> input_a<25> input_a<26> input_a<27> input_a<28> input_a<29> input_a<30> input_a<31> input_b<0> input_b<1> input_b<2> input_b<3> input_b<4> input_b<5> input_b<6> input_b<7> input_b<8> input_b<9> input_b<10> input_b<11> input_b<12> input_b<13> input_b<14> input_b<15> input_b<16> input_b<17> input_b<18> input_b<19> input_b<20> input_b<21> input_b<22> input_b<23> input_b<24> input_b<25> input_b<26> input_b<27> input_b<28> input_b<29> input_b<30> input_b<31> input_a_stb input_b_stb output_z_ack clk rst output_z<0> output_z<1> output_z<2> output_z<3> output_z<4> output_z<5> output_z<6> output_z<7> output_z<8> output_z<9> output_z<10> output_z<11> output_z<12> output_z<13> output_z<14> output_z<15> output_z<16> output_z<17> output_z<18> output_z<19> output_z<20> output_z<21> output_z<22> output_z<23> output_z<24> output_z<25> output_z<26> output_z<27> output_z<28> output_z<29> output_z<30> output_z<31> output_z_stb input_a_ack input_b_ack 
XBUFX4_1 vdd gnd clk clk_hier0_bF$buf6 BUFX4
XBUFX4_2 vdd gnd clk clk_hier0_bF$buf5 BUFX4
XBUFX4_3 vdd gnd clk clk_hier0_bF$buf4 BUFX4
XBUFX4_4 vdd gnd clk clk_hier0_bF$buf3 BUFX4
XBUFX4_5 vdd gnd clk clk_hier0_bF$buf2 BUFX4
XBUFX4_6 vdd gnd clk clk_hier0_bF$buf1 BUFX4
XBUFX4_7 vdd gnd clk clk_hier0_bF$buf0 BUFX4
XBUFX4_8 vdd gnd state<12> state_12_bF$buf4 BUFX4
XBUFX2_1 vdd gnd state<12> state_12_bF$buf3 BUFX2
XBUFX4_9 vdd gnd state<12> state_12_bF$buf2 BUFX4
XBUFX4_10 vdd gnd state<12> state_12_bF$buf1 BUFX4
XBUFX4_11 vdd gnd state<12> state_12_bF$buf0 BUFX4
XBUFX4_12 vdd gnd _124_ _124__bF$buf3 BUFX4
XBUFX4_13 vdd gnd _124_ _124__bF$buf2 BUFX4
XBUFX4_14 vdd gnd _124_ _124__bF$buf1 BUFX4
XBUFX4_15 vdd gnd _124_ _124__bF$buf0 BUFX4
XBUFX4_16 vdd gnd _194_ _194__bF$buf3 BUFX4
XBUFX2_2 vdd gnd _194_ _194__bF$buf2 BUFX2
XBUFX2_3 vdd gnd _194_ _194__bF$buf1 BUFX2
XBUFX2_4 vdd gnd _194_ _194__bF$buf0 BUFX2
XBUFX4_17 vdd gnd state<7> state_7_bF$buf6 BUFX4
XBUFX4_18 vdd gnd state<7> state_7_bF$buf5 BUFX4
XBUFX4_19 vdd gnd state<7> state_7_bF$buf4 BUFX4
XBUFX4_20 vdd gnd state<7> state_7_bF$buf3 BUFX4
XBUFX4_21 vdd gnd state<7> state_7_bF$buf2 BUFX4
XBUFX4_22 vdd gnd state<7> state_7_bF$buf1 BUFX4
XBUFX4_23 vdd gnd state<7> state_7_bF$buf0 BUFX4
XBUFX4_24 vdd gnd state<4> state_4_bF$buf6 BUFX4
XBUFX4_25 vdd gnd state<4> state_4_bF$buf5 BUFX4
XBUFX4_26 vdd gnd state<4> state_4_bF$buf4 BUFX4
XBUFX4_27 vdd gnd state<4> state_4_bF$buf3 BUFX4
XBUFX4_28 vdd gnd state<4> state_4_bF$buf2 BUFX4
XBUFX4_29 vdd gnd state<4> state_4_bF$buf1 BUFX4
XBUFX4_30 vdd gnd state<4> state_4_bF$buf0 BUFX4
XBUFX4_31 vdd gnd clk_hier0_bF$buf0 clk_bF$buf56 BUFX4
XBUFX4_32 vdd gnd clk_hier0_bF$buf6 clk_bF$buf55 BUFX4
XBUFX4_33 vdd gnd clk_hier0_bF$buf3 clk_bF$buf54 BUFX4
XBUFX4_34 vdd gnd clk_hier0_bF$buf0 clk_bF$buf53 BUFX4
XBUFX4_35 vdd gnd clk_hier0_bF$buf1 clk_bF$buf52 BUFX4
XBUFX4_36 vdd gnd clk_hier0_bF$buf4 clk_bF$buf51 BUFX4
XBUFX4_37 vdd gnd clk_hier0_bF$buf3 clk_bF$buf50 BUFX4
XBUFX4_38 vdd gnd clk_hier0_bF$buf0 clk_bF$buf49 BUFX4
XBUFX4_39 vdd gnd clk_hier0_bF$buf5 clk_bF$buf48 BUFX4
XBUFX4_40 vdd gnd clk_hier0_bF$buf3 clk_bF$buf47 BUFX4
XBUFX4_41 vdd gnd clk_hier0_bF$buf6 clk_bF$buf46 BUFX4
XBUFX4_42 vdd gnd clk_hier0_bF$buf0 clk_bF$buf45 BUFX4
XBUFX4_43 vdd gnd clk_hier0_bF$buf2 clk_bF$buf44 BUFX4
XBUFX4_44 vdd gnd clk_hier0_bF$buf5 clk_bF$buf43 BUFX4
XBUFX4_45 vdd gnd clk_hier0_bF$buf6 clk_bF$buf42 BUFX4
XBUFX4_46 vdd gnd clk_hier0_bF$buf0 clk_bF$buf41 BUFX4
XBUFX4_47 vdd gnd clk_hier0_bF$buf2 clk_bF$buf40 BUFX4
XBUFX4_48 vdd gnd clk_hier0_bF$buf6 clk_bF$buf39 BUFX4
XBUFX4_49 vdd gnd clk_hier0_bF$buf4 clk_bF$buf38 BUFX4
XBUFX4_50 vdd gnd clk_hier0_bF$buf5 clk_bF$buf37 BUFX4
XBUFX4_51 vdd gnd clk_hier0_bF$buf5 clk_bF$buf36 BUFX4
XBUFX4_52 vdd gnd clk_hier0_bF$buf4 clk_bF$buf35 BUFX4
XBUFX4_53 vdd gnd clk_hier0_bF$buf2 clk_bF$buf34 BUFX4
XBUFX4_54 vdd gnd clk_hier0_bF$buf5 clk_bF$buf33 BUFX4
XBUFX4_55 vdd gnd clk_hier0_bF$buf1 clk_bF$buf32 BUFX4
XBUFX4_56 vdd gnd clk_hier0_bF$buf1 clk_bF$buf31 BUFX4
XBUFX4_57 vdd gnd clk_hier0_bF$buf5 clk_bF$buf30 BUFX4
XBUFX4_58 vdd gnd clk_hier0_bF$buf4 clk_bF$buf29 BUFX4
XBUFX4_59 vdd gnd clk_hier0_bF$buf1 clk_bF$buf28 BUFX4
XBUFX4_60 vdd gnd clk_hier0_bF$buf1 clk_bF$buf27 BUFX4
XBUFX4_61 vdd gnd clk_hier0_bF$buf6 clk_bF$buf26 BUFX4
XBUFX4_62 vdd gnd clk_hier0_bF$buf3 clk_bF$buf25 BUFX4
XBUFX4_63 vdd gnd clk_hier0_bF$buf5 clk_bF$buf24 BUFX4
XBUFX4_64 vdd gnd clk_hier0_bF$buf5 clk_bF$buf23 BUFX4
XBUFX4_65 vdd gnd clk_hier0_bF$buf3 clk_bF$buf22 BUFX4
XBUFX4_66 vdd gnd clk_hier0_bF$buf2 clk_bF$buf21 BUFX4
XBUFX4_67 vdd gnd clk_hier0_bF$buf2 clk_bF$buf20 BUFX4
XBUFX4_68 vdd gnd clk_hier0_bF$buf6 clk_bF$buf19 BUFX4
XBUFX4_69 vdd gnd clk_hier0_bF$buf4 clk_bF$buf18 BUFX4
XBUFX4_70 vdd gnd clk_hier0_bF$buf2 clk_bF$buf17 BUFX4
XBUFX4_71 vdd gnd clk_hier0_bF$buf3 clk_bF$buf16 BUFX4
XBUFX4_72 vdd gnd clk_hier0_bF$buf4 clk_bF$buf15 BUFX4
XBUFX4_73 vdd gnd clk_hier0_bF$buf1 clk_bF$buf14 BUFX4
XBUFX4_74 vdd gnd clk_hier0_bF$buf3 clk_bF$buf13 BUFX4
XBUFX4_75 vdd gnd clk_hier0_bF$buf0 clk_bF$buf12 BUFX4
XBUFX4_76 vdd gnd clk_hier0_bF$buf3 clk_bF$buf11 BUFX4
XBUFX4_77 vdd gnd clk_hier0_bF$buf0 clk_bF$buf10 BUFX4
XBUFX4_78 vdd gnd clk_hier0_bF$buf1 clk_bF$buf9 BUFX4
XBUFX4_79 vdd gnd clk_hier0_bF$buf2 clk_bF$buf8 BUFX4
XBUFX4_80 vdd gnd clk_hier0_bF$buf1 clk_bF$buf7 BUFX4
XBUFX4_81 vdd gnd clk_hier0_bF$buf2 clk_bF$buf6 BUFX4
XBUFX4_82 vdd gnd clk_hier0_bF$buf6 clk_bF$buf5 BUFX4
XBUFX4_83 vdd gnd clk_hier0_bF$buf6 clk_bF$buf4 BUFX4
XBUFX4_84 vdd gnd clk_hier0_bF$buf0 clk_bF$buf3 BUFX4
XBUFX4_85 vdd gnd clk_hier0_bF$buf6 clk_bF$buf2 BUFX4
XBUFX4_86 vdd gnd clk_hier0_bF$buf4 clk_bF$buf1 BUFX4
XBUFX4_87 vdd gnd clk_hier0_bF$buf4 clk_bF$buf0 BUFX4
XBUFX4_88 vdd gnd state<1> state_1_bF$buf6 BUFX4
XBUFX4_89 vdd gnd state<1> state_1_bF$buf5 BUFX4
XBUFX4_90 vdd gnd state<1> state_1_bF$buf4 BUFX4
XBUFX4_91 vdd gnd state<1> state_1_bF$buf3 BUFX4
XBUFX4_92 vdd gnd state<1> state_1_bF$buf2 BUFX4
XBUFX4_93 vdd gnd state<1> state_1_bF$buf1 BUFX4
XBUFX4_94 vdd gnd state<1> state_1_bF$buf0 BUFX4
XBUFX4_95 vdd gnd _567_ _567__bF$buf5 BUFX4
XBUFX4_96 vdd gnd _567_ _567__bF$buf4 BUFX4
XBUFX4_97 vdd gnd _567_ _567__bF$buf3 BUFX4
XBUFX4_98 vdd gnd _567_ _567__bF$buf2 BUFX4
XBUFX4_99 vdd gnd _567_ _567__bF$buf1 BUFX4
XBUFX4_100 vdd gnd _567_ _567__bF$buf0 BUFX4
XBUFX4_101 vdd gnd _36_ _36__bF$buf4 BUFX4
XBUFX4_102 vdd gnd _36_ _36__bF$buf3 BUFX4
XBUFX4_103 vdd gnd _36_ _36__bF$buf2 BUFX4
XBUFX4_104 vdd gnd _36_ _36__bF$buf1 BUFX4
XBUFX4_105 vdd gnd _36_ _36__bF$buf0 BUFX4
XBUFX4_106 vdd gnd _182_ _182__bF$buf6 BUFX4
XBUFX4_107 vdd gnd _182_ _182__bF$buf5 BUFX4
XBUFX4_108 vdd gnd _182_ _182__bF$buf4 BUFX4
XBUFX4_109 vdd gnd _182_ _182__bF$buf3 BUFX4
XBUFX4_110 vdd gnd _182_ _182__bF$buf2 BUFX4
XBUFX4_111 vdd gnd _182_ _182__bF$buf1 BUFX4
XBUFX4_112 vdd gnd _182_ _182__bF$buf0 BUFX4
XBUFX4_113 vdd gnd _561_ _561__bF$buf4 BUFX4
XBUFX4_114 vdd gnd _561_ _561__bF$buf3 BUFX4
XBUFX4_115 vdd gnd _561_ _561__bF$buf2 BUFX4
XBUFX4_116 vdd gnd _561_ _561__bF$buf1 BUFX4
XBUFX4_117 vdd gnd _561_ _561__bF$buf0 BUFX4
XBUFX4_118 vdd gnd _1973_ _1973__bF$buf3 BUFX4
XBUFX4_119 vdd gnd _1973_ _1973__bF$buf2 BUFX4
XBUFX4_120 vdd gnd _1973_ _1973__bF$buf1 BUFX4
XBUFX4_121 vdd gnd _1973_ _1973__bF$buf0 BUFX4
XBUFX4_122 vdd gnd state<14> state_14_bF$buf7 BUFX4
XBUFX4_123 vdd gnd state<14> state_14_bF$buf6 BUFX4
XBUFX4_124 vdd gnd state<14> state_14_bF$buf5 BUFX4
XBUFX4_125 vdd gnd state<14> state_14_bF$buf4 BUFX4
XBUFX4_126 vdd gnd state<14> state_14_bF$buf3 BUFX4
XBUFX4_127 vdd gnd state<14> state_14_bF$buf2 BUFX4
XBUFX4_128 vdd gnd state<14> state_14_bF$buf1 BUFX4
XBUFX4_129 vdd gnd state<14> state_14_bF$buf0 BUFX4
XBUFX4_130 vdd gnd state<11> state_11_bF$buf4 BUFX4
XBUFX4_131 vdd gnd state<11> state_11_bF$buf3 BUFX4
XBUFX4_132 vdd gnd state<11> state_11_bF$buf2 BUFX4
XBUFX4_133 vdd gnd state<11> state_11_bF$buf1 BUFX4
XBUFX4_134 vdd gnd state<11> state_11_bF$buf0 BUFX4
XBUFX4_135 vdd gnd _199_ _199__bF$buf6 BUFX4
XBUFX4_136 vdd gnd _199_ _199__bF$buf5 BUFX4
XBUFX4_137 vdd gnd _199_ _199__bF$buf4 BUFX4
XBUFX4_138 vdd gnd _199_ _199__bF$buf3 BUFX4
XBUFX4_139 vdd gnd _199_ _199__bF$buf2 BUFX4
XBUFX4_140 vdd gnd _199_ _199__bF$buf1 BUFX4
XBUFX4_141 vdd gnd _199_ _199__bF$buf0 BUFX4
XBUFX4_142 vdd gnd state<6> state_6_bF$buf7 BUFX4
XBUFX4_143 vdd gnd state<6> state_6_bF$buf6 BUFX4
XBUFX4_144 vdd gnd state<6> state_6_bF$buf5 BUFX4
XBUFX4_145 vdd gnd state<6> state_6_bF$buf4 BUFX4
XBUFX4_146 vdd gnd state<6> state_6_bF$buf3 BUFX4
XBUFX4_147 vdd gnd state<6> state_6_bF$buf2 BUFX4
XBUFX4_148 vdd gnd state<6> state_6_bF$buf1 BUFX4
XBUFX4_149 vdd gnd state<6> state_6_bF$buf0 BUFX4
XBUFX4_150 vdd gnd state<3> state_3_bF$buf4 BUFX4
XBUFX4_151 vdd gnd state<3> state_3_bF$buf3 BUFX4
XBUFX4_152 vdd gnd state<3> state_3_bF$buf2 BUFX4
XBUFX4_153 vdd gnd state<3> state_3_bF$buf1 BUFX4
XBUFX4_154 vdd gnd state<3> state_3_bF$buf0 BUFX4
XBUFX4_155 vdd gnd _38_ _38__bF$buf4 BUFX4
XBUFX4_156 vdd gnd _38_ _38__bF$buf3 BUFX4
XBUFX4_157 vdd gnd _38_ _38__bF$buf2 BUFX4
XBUFX4_158 vdd gnd _38_ _38__bF$buf1 BUFX4
XBUFX4_159 vdd gnd _38_ _38__bF$buf0 BUFX4
XBUFX4_160 vdd gnd _243_ _243__bF$buf3 BUFX4
XBUFX4_161 vdd gnd _243_ _243__bF$buf2 BUFX4
XBUFX4_162 vdd gnd _243_ _243__bF$buf1 BUFX4
XBUFX4_163 vdd gnd _243_ _243__bF$buf0 BUFX4
XBUFX4_164 vdd gnd _202_ _202__bF$buf7 BUFX4
XBUFX4_165 vdd gnd _202_ _202__bF$buf6 BUFX4
XBUFX4_166 vdd gnd _202_ _202__bF$buf5 BUFX4
XBUFX4_167 vdd gnd _202_ _202__bF$buf4 BUFX4
XBUFX4_168 vdd gnd _202_ _202__bF$buf3 BUFX4
XBUFX4_169 vdd gnd _202_ _202__bF$buf2 BUFX4
XBUFX4_170 vdd gnd _202_ _202__bF$buf1 BUFX4
XBUFX4_171 vdd gnd _202_ _202__bF$buf0 BUFX4
XBUFX4_172 vdd gnd _563_ _563__bF$buf6 BUFX4
XBUFX4_173 vdd gnd _563_ _563__bF$buf5 BUFX4
XBUFX4_174 vdd gnd _563_ _563__bF$buf4 BUFX4
XBUFX4_175 vdd gnd _563_ _563__bF$buf3 BUFX4
XBUFX4_176 vdd gnd _563_ _563__bF$buf2 BUFX4
XBUFX4_177 vdd gnd _563_ _563__bF$buf1 BUFX4
XBUFX4_178 vdd gnd _563_ _563__bF$buf0 BUFX4
XBUFX4_179 vdd gnd _237_ _237__bF$buf3 BUFX4
XBUFX4_180 vdd gnd _237_ _237__bF$buf2 BUFX4
XBUFX4_181 vdd gnd _237_ _237__bF$buf1 BUFX4
XBUFX4_182 vdd gnd _237_ _237__bF$buf0 BUFX4
XBUFX4_183 vdd gnd _234_ _234__bF$buf4 BUFX4
XBUFX4_184 vdd gnd _234_ _234__bF$buf3 BUFX4
XBUFX4_185 vdd gnd _234_ _234__bF$buf2 BUFX4
XBUFX4_186 vdd gnd _234_ _234__bF$buf1 BUFX4
XBUFX4_187 vdd gnd _234_ _234__bF$buf0 BUFX4
XBUFX4_188 vdd gnd _228_ _228__bF$buf3 BUFX4
XBUFX2_5 vdd gnd _228_ _228__bF$buf2 BUFX2
XBUFX4_189 vdd gnd _228_ _228__bF$buf1 BUFX4
XBUFX2_6 vdd gnd _228_ _228__bF$buf0 BUFX2
XBUFX4_190 vdd gnd _1258_ _1258__bF$buf5 BUFX4
XBUFX4_191 vdd gnd _1258_ _1258__bF$buf4 BUFX4
XBUFX4_192 vdd gnd _1258_ _1258__bF$buf3 BUFX4
XBUFX4_193 vdd gnd _1258_ _1258__bF$buf2 BUFX4
XBUFX4_194 vdd gnd _1258_ _1258__bF$buf1 BUFX4
XBUFX4_195 vdd gnd _1258_ _1258__bF$buf0 BUFX4
XBUFX4_196 vdd gnd _871_ _871__bF$buf7 BUFX4
XBUFX4_197 vdd gnd _871_ _871__bF$buf6 BUFX4
XBUFX4_198 vdd gnd _871_ _871__bF$buf5 BUFX4
XBUFX4_199 vdd gnd _871_ _871__bF$buf4 BUFX4
XBUFX4_200 vdd gnd _871_ _871__bF$buf3 BUFX4
XBUFX4_201 vdd gnd _871_ _871__bF$buf2 BUFX4
XBUFX4_202 vdd gnd _871_ _871__bF$buf1 BUFX4
XBUFX4_203 vdd gnd _871_ _871__bF$buf0 BUFX4
XBUFX4_204 vdd gnd _245_ _245__bF$buf7 BUFX4
XBUFX4_205 vdd gnd _245_ _245__bF$buf6 BUFX4
XBUFX4_206 vdd gnd _245_ _245__bF$buf5 BUFX4
XBUFX4_207 vdd gnd _245_ _245__bF$buf4 BUFX4
XBUFX4_208 vdd gnd _245_ _245__bF$buf3 BUFX4
XBUFX4_209 vdd gnd _245_ _245__bF$buf2 BUFX4
XBUFX4_210 vdd gnd _245_ _245__bF$buf1 BUFX4
XBUFX4_211 vdd gnd _245_ _245__bF$buf0 BUFX4
XBUFX4_212 vdd gnd _239_ _239__bF$buf3 BUFX4
XBUFX4_213 vdd gnd _239_ _239__bF$buf2 BUFX4
XBUFX4_214 vdd gnd _239_ _239__bF$buf1 BUFX4
XBUFX4_215 vdd gnd _239_ _239__bF$buf0 BUFX4
XBUFX4_216 vdd gnd _562_ _562__bF$buf6 BUFX4
XBUFX4_217 vdd gnd _562_ _562__bF$buf5 BUFX4
XBUFX4_218 vdd gnd _562_ _562__bF$buf4 BUFX4
XBUFX4_219 vdd gnd _562_ _562__bF$buf3 BUFX4
XBUFX4_220 vdd gnd _562_ _562__bF$buf2 BUFX4
XBUFX4_221 vdd gnd _562_ _562__bF$buf1 BUFX4
XBUFX4_222 vdd gnd _562_ _562__bF$buf0 BUFX4
XBUFX4_223 vdd gnd _1974_ _1974__bF$buf3 BUFX4
XBUFX4_224 vdd gnd _1974_ _1974__bF$buf2 BUFX4
XBUFX4_225 vdd gnd _1974_ _1974__bF$buf1 BUFX4
XBUFX4_226 vdd gnd _1974_ _1974__bF$buf0 BUFX4
XBUFX4_227 vdd gnd _903_ _903__bF$buf3 BUFX4
XBUFX4_228 vdd gnd _903_ _903__bF$buf2 BUFX4
XBUFX4_229 vdd gnd _903_ _903__bF$buf1 BUFX4
XBUFX4_230 vdd gnd _903_ _903__bF$buf0 BUFX4
XINVX1_1 a_m<3> _1968_ vdd gnd INVX1
XNOR2X1_1 vdd state_4_bF$buf6 gnd _1969_ state<2> NOR2X1
XINVX1_2 a_m<23> _1970_ vdd gnd INVX1
XINVX2_1 vdd gnd _1971_ state<2> INVX2
XNOR2X1_2 vdd _1971_ gnd _1972_ _1970_ NOR2X1
XNOR2X1_3 vdd _1972_ gnd _1973_ _1969_ NOR2X1
XNOR2X1_4 vdd _1971_ gnd _1974_ a_m<23> NOR2X1
XAOI22X1_1 gnd vdd a_m<2> _1974__bF$buf3 _1975_ a<3> state_4_bF$buf4 AOI22X1
XOAI21X1_1 gnd vdd _1968_ _1973__bF$buf3 _2_<3> _1975_ OAI21X1
XINVX1_3 a_m<4> _1976_ vdd gnd INVX1
XAOI22X1_2 gnd vdd a_m<3> _1974__bF$buf3 _1977_ state_4_bF$buf1 a<4> AOI22X1
XOAI21X1_2 gnd vdd _1976_ _1973__bF$buf2 _2_<4> _1977_ OAI21X1
XINVX1_4 a_m<5> _1978_ vdd gnd INVX1
XAOI22X1_3 gnd vdd a_m<4> _1974__bF$buf0 _1979_ state_4_bF$buf2 a<5> AOI22X1
XOAI21X1_3 gnd vdd _1978_ _1973__bF$buf2 _2_<5> _1979_ OAI21X1
XINVX1_5 a_m<6> _1980_ vdd gnd INVX1
XAOI22X1_4 gnd vdd a_m<5> _1974__bF$buf0 _1981_ state_4_bF$buf2 a<6> AOI22X1
XOAI21X1_4 gnd vdd _1980_ _1973__bF$buf2 _2_<6> _1981_ OAI21X1
XINVX1_6 a_m<7> _1982_ vdd gnd INVX1
XAOI22X1_5 gnd vdd a_m<6> _1974__bF$buf2 _1983_ state_4_bF$buf1 a<7> AOI22X1
XOAI21X1_5 gnd vdd _1982_ _1973__bF$buf1 _2_<7> _1983_ OAI21X1
XINVX1_7 a_m<8> _1984_ vdd gnd INVX1
XAOI22X1_6 gnd vdd a_m<7> _1974__bF$buf2 _1985_ state_4_bF$buf1 a<8> AOI22X1
XOAI21X1_6 gnd vdd _1984_ _1973__bF$buf1 _2_<8> _1985_ OAI21X1
XINVX1_8 a_m<9> _1986_ vdd gnd INVX1
XAOI22X1_7 gnd vdd a_m<8> _1974__bF$buf2 _1987_ state_4_bF$buf1 a<9> AOI22X1
XOAI21X1_7 gnd vdd _1986_ _1973__bF$buf1 _2_<9> _1987_ OAI21X1
XINVX1_9 a_m<10> _1988_ vdd gnd INVX1
XAOI22X1_8 gnd vdd a_m<9> _1974__bF$buf3 _1989_ state_4_bF$buf1 a<10> AOI22X1
XOAI21X1_8 gnd vdd _1988_ _1973__bF$buf3 _2_<10> _1989_ OAI21X1
XINVX1_10 a_m<11> _1990_ vdd gnd INVX1
XAOI22X1_9 gnd vdd a_m<10> _1974__bF$buf1 _1991_ state_4_bF$buf4 a<11> AOI22X1
XOAI21X1_9 gnd vdd _1990_ _1973__bF$buf3 _2_<11> _1991_ OAI21X1
XINVX1_11 a_m<12> _1992_ vdd gnd INVX1
XAOI22X1_10 gnd vdd a_m<11> _1974__bF$buf1 _1993_ state_4_bF$buf4 a<12> AOI22X1
XOAI21X1_10 gnd vdd _1992_ _1973__bF$buf0 _2_<12> _1993_ OAI21X1
XINVX1_12 a_m<13> _1994_ vdd gnd INVX1
XAOI22X1_11 gnd vdd a_m<12> _1974__bF$buf1 _1995_ state_4_bF$buf4 a<13> AOI22X1
XOAI21X1_11 gnd vdd _1994_ _1973__bF$buf0 _2_<13> _1995_ OAI21X1
XINVX1_13 a_m<14> _1996_ vdd gnd INVX1
XAOI22X1_12 gnd vdd a_m<13> _1974__bF$buf1 _1997_ state_4_bF$buf4 a<14> AOI22X1
XOAI21X1_12 gnd vdd _1996_ _1973__bF$buf0 _2_<14> _1997_ OAI21X1
XINVX1_14 a_m<15> _1998_ vdd gnd INVX1
XAOI22X1_13 gnd vdd a_m<14> _1974__bF$buf1 _1999_ state_4_bF$buf4 a<15> AOI22X1
XOAI21X1_13 gnd vdd _1998_ _1973__bF$buf0 _2_<15> _1999_ OAI21X1
XINVX1_15 a_m<16> _2000_ vdd gnd INVX1
XAOI22X1_14 gnd vdd a_m<15> _1974__bF$buf1 _2001_ state_4_bF$buf4 a<16> AOI22X1
XOAI21X1_14 gnd vdd _2000_ _1973__bF$buf3 _2_<16> _2001_ OAI21X1
XINVX1_16 a_m<17> _2002_ vdd gnd INVX1
XAOI22X1_15 gnd vdd a_m<16> _1974__bF$buf2 _2003_ state_4_bF$buf1 a<17> AOI22X1
XOAI21X1_15 gnd vdd _2002_ _1973__bF$buf3 _2_<17> _2003_ OAI21X1
XINVX1_17 a_m<18> _24_ vdd gnd INVX1
XAOI22X1_16 gnd vdd a_m<17> _1974__bF$buf3 _25_ state_4_bF$buf1 a<18> AOI22X1
XOAI21X1_16 gnd vdd _24_ _1973__bF$buf3 _2_<18> _25_ OAI21X1
XINVX1_18 a_m<19> _26_ vdd gnd INVX1
XAOI22X1_17 gnd vdd a_m<18> _1974__bF$buf3 _27_ state_4_bF$buf1 a<19> AOI22X1
XOAI21X1_17 gnd vdd _26_ _1973__bF$buf1 _2_<19> _27_ OAI21X1
XINVX1_19 a_m<20> _28_ vdd gnd INVX1
XAOI22X1_18 gnd vdd a_m<19> _1974__bF$buf2 _29_ state_4_bF$buf2 a<20> AOI22X1
XOAI21X1_18 gnd vdd _28_ _1973__bF$buf1 _2_<20> _29_ OAI21X1
XINVX1_20 a_m<21> _30_ vdd gnd INVX1
XAOI22X1_19 gnd vdd a_m<20> _1974__bF$buf2 _31_ state_4_bF$buf2 a<21> AOI22X1
XOAI21X1_19 gnd vdd _30_ _1973__bF$buf2 _2_<21> _31_ OAI21X1
XINVX1_21 a_m<22> _32_ vdd gnd INVX1
XAOI22X1_20 gnd vdd a_m<21> _1974__bF$buf0 _33_ state_4_bF$buf2 a<22> AOI22X1
XOAI21X1_20 gnd vdd _32_ _1973__bF$buf2 _2_<22> _33_ OAI21X1
XINVX1_22 z_e<9> _34_ vdd gnd INVX1
XOAI21X1_21 gnd vdd z_e<8> z_e<7> _35_ _34_ OAI21X1
XINVX8_1 vdd gnd _35_ _36_ INVX8
XNAND2X1_1 vdd _37_ gnd state_11_bF$buf1 z_m<0> NAND2X1
XNOR2X1_5 vdd state_11_bF$buf0 gnd _38_ state_12_bF$buf1 NOR2X1
XNOR2X1_6 vdd b_e<4> gnd _39_ b_e<5> NOR2X1
XINVX1_23 _39_ _40_ vdd gnd INVX1
XINVX1_24 b_e<6> _41_ vdd gnd INVX1
XNAND2X1_2 vdd _42_ gnd b_e<7> _41_ NAND2X1
XNOR2X1_7 vdd _40_ gnd _43_ _42_ NOR2X1
XINVX1_25 _43_ _44_ vdd gnd INVX1
XNOR2X1_8 vdd b_e<2> gnd _45_ b_e<3> NOR2X1
XINVX1_26 b_e<9> _46_ vdd gnd INVX1
XNOR2X1_9 vdd _46_ gnd _47_ b_e<1> NOR2X1
XAND2X2_1 vdd gnd b_e<0> b_e<8> _48_ AND2X2
XNAND3X1_1 _47_ vdd gnd _45_ _48_ _49_ NAND3X1
XNOR2X1_10 vdd _44_ gnd _50_ _49_ NOR2X1
XINVX2_2 vdd gnd _51_ _50_ INVX2
XINVX1_27 b_m<21> _52_ vdd gnd INVX1
XINVX1_28 b_m<20> _53_ vdd gnd INVX1
XNOR2X1_11 vdd b_m<22> gnd _54_ b_m<23> NOR2X1
XNAND3X1_2 _53_ vdd gnd _52_ _54_ _55_ NAND3X1
XINVX1_29 b_m<17> _56_ vdd gnd INVX1
XINVX1_30 b_m<16> _57_ vdd gnd INVX1
XNOR2X1_12 vdd b_m<18> gnd _58_ b_m<19> NOR2X1
XNAND3X1_3 _57_ vdd gnd _56_ _58_ _59_ NAND3X1
XNOR2X1_13 vdd _59_ gnd _60_ _55_ NOR2X1
XINVX1_31 b_m<1> _61_ vdd gnd INVX1
XINVX1_32 b_m<0> _62_ vdd gnd INVX1
XNOR2X1_14 vdd b_m<2> gnd _63_ b_m<3> NOR2X1
XNAND3X1_4 _62_ vdd gnd _61_ _63_ _64_ NAND3X1
XINVX1_33 b_m<7> _65_ vdd gnd INVX1
XINVX1_34 b_m<6> _66_ vdd gnd INVX1
XNOR2X1_15 vdd b_m<4> gnd _67_ b_m<5> NOR2X1
XNAND3X1_5 _66_ vdd gnd _65_ _67_ _68_ NAND3X1
XNOR2X1_16 vdd _68_ gnd _69_ _64_ NOR2X1
XINVX1_35 b_m<15> _70_ vdd gnd INVX1
XINVX1_36 b_m<14> _71_ vdd gnd INVX1
XNOR2X1_17 vdd b_m<12> gnd _72_ b_m<13> NOR2X1
XNAND3X1_6 _71_ vdd gnd _70_ _72_ _73_ NAND3X1
XINVX1_37 b_m<9> _74_ vdd gnd INVX1
XINVX1_38 b_m<8> _75_ vdd gnd INVX1
XNOR2X1_18 vdd b_m<10> gnd _76_ b_m<11> NOR2X1
XNAND3X1_7 _75_ vdd gnd _74_ _76_ _77_ NAND3X1
XNOR2X1_19 vdd _77_ gnd _78_ _73_ NOR2X1
XNAND3X1_8 _69_ vdd gnd _60_ _78_ _79_ NAND3X1
XOAI21X1_22 gnd vdd _79_ _51_ _80_ state_12_bF$buf2 OAI21X1
XNOR2X1_20 vdd a_e<4> gnd _81_ a_e<5> NOR2X1
XINVX1_39 _81_ _82_ vdd gnd INVX1
XINVX1_40 a_e<6> _83_ vdd gnd INVX1
XNAND2X1_3 vdd _84_ gnd a_e<7> _83_ NAND2X1
XNOR2X1_21 vdd _82_ gnd _85_ _84_ NOR2X1
XINVX2_3 vdd gnd _86_ _85_ INVX2
XINVX1_41 a_e<1> _87_ vdd gnd INVX1
XNOR2X1_22 vdd a_e<2> gnd _88_ a_e<3> NOR2X1
XNAND3X1_9 a_e<0> vdd gnd _87_ _88_ _89_ NAND3X1
XNOR2X1_23 vdd _86_ gnd _90_ _89_ NOR2X1
XNAND3X1_10 a_e<8> vdd gnd a_e<9> _90_ _91_ NAND3X1
XNOR2X1_24 vdd a_m<5> gnd _92_ a_m<4> NOR2X1
XNAND3X1_11 _1982_ vdd gnd _1980_ _92_ _93_ NAND3X1
XINVX1_42 a_m<2> _94_ vdd gnd INVX1
XNAND2X1_4 vdd _95_ gnd _94_ _1968_ NAND2X1
XNAND2X1_5 vdd _96_ gnd _1970_ _32_ NAND2X1
XOR2X2_1 _97_ _96_ vdd gnd _95_ OR2X2
XNOR2X1_25 vdd _97_ gnd _98_ _93_ NOR2X1
XNOR2X1_26 vdd a_m<13> gnd _99_ a_m<12> NOR2X1
XNAND3X1_12 _1998_ vdd gnd _1996_ _99_ _100_ NAND3X1
XNOR2X1_27 vdd a_m<9> gnd _101_ a_m<8> NOR2X1
XNAND3X1_13 _1990_ vdd gnd _1988_ _101_ _102_ NAND3X1
XNOR2X1_28 vdd _102_ gnd _103_ _100_ NOR2X1
XNOR2X1_29 vdd a_m<17> gnd _104_ a_m<16> NOR2X1
XNAND3X1_14 _26_ vdd gnd _24_ _104_ _105_ NAND3X1
XNOR2X1_30 vdd a_m<0> gnd _106_ a_m<1> NOR2X1
XNAND3X1_15 _30_ vdd gnd _28_ _106_ _107_ NAND3X1
XNOR2X1_31 vdd _105_ gnd _108_ _107_ NOR2X1
XNAND3X1_16 _108_ vdd gnd _103_ _98_ _109_ NAND3X1
XINVX1_43 a_e<9> _110_ vdd gnd INVX1
XINVX1_44 a_e<8> _111_ vdd gnd INVX1
XNOR2X1_32 vdd a_e<0> gnd _112_ a_e<1> NOR2X1
XAND2X2_2 vdd gnd _88_ _112_ _113_ AND2X2
XNAND3X1_17 _111_ vdd gnd _110_ _113_ _114_ NAND3X1
XINVX1_45 b_e<1> _115_ vdd gnd INVX1
XINVX1_46 b_e<0> _116_ vdd gnd INVX1
XNAND3X1_18 _116_ vdd gnd _115_ _45_ _117_ NAND3X1
XINVX1_47 _117_ _118_ vdd gnd INVX1
XNOR2X1_33 vdd b_e<8> gnd _119_ b_e<9> NOR2X1
XNAND3X1_19 _118_ vdd gnd _119_ _43_ _120_ NAND3X1
XOAI21X1_23 gnd vdd _114_ _86_ _121_ _120_ OAI21X1
XINVX2_4 vdd gnd _122_ _121_ INVX2
XOAI21X1_24 gnd vdd _109_ _91_ _123_ _122_ OAI21X1
XNOR2X1_34 vdd _123_ gnd _124_ _80_ NOR2X1
XOAI21X1_25 gnd vdd _38__bF$buf3 _124__bF$buf3 _125_ z<0> OAI21X1
XOAI21X1_26 gnd vdd _36__bF$buf4 _37_ _20_<0> _125_ OAI21X1
XNAND2X1_6 vdd _126_ gnd state_11_bF$buf1 z_m<1> NAND2X1
XOAI21X1_27 gnd vdd _38__bF$buf3 _124__bF$buf3 _127_ z<1> OAI21X1
XOAI21X1_28 gnd vdd _36__bF$buf4 _126_ _20_<1> _127_ OAI21X1
XNAND2X1_7 vdd _128_ gnd state_11_bF$buf3 z_m<2> NAND2X1
XOAI21X1_29 gnd vdd _38__bF$buf2 _124__bF$buf1 _129_ z<2> OAI21X1
XOAI21X1_30 gnd vdd _36__bF$buf1 _128_ _20_<2> _129_ OAI21X1
XNAND2X1_8 vdd _130_ gnd state_11_bF$buf4 z_m<3> NAND2X1
XOAI21X1_31 gnd vdd _38__bF$buf4 _124__bF$buf2 _131_ z<3> OAI21X1
XOAI21X1_32 gnd vdd _36__bF$buf2 _130_ _20_<3> _131_ OAI21X1
XNAND2X1_9 vdd _132_ gnd state_11_bF$buf4 z_m<4> NAND2X1
XOAI21X1_33 gnd vdd _38__bF$buf0 _124__bF$buf2 _133_ z<4> OAI21X1
XOAI21X1_34 gnd vdd _36__bF$buf2 _132_ _20_<4> _133_ OAI21X1
XNAND2X1_10 vdd _134_ gnd state_11_bF$buf1 z_m<5> NAND2X1
XOAI21X1_35 gnd vdd _38__bF$buf3 _124__bF$buf3 _135_ z<5> OAI21X1
XOAI21X1_36 gnd vdd _36__bF$buf4 _134_ _20_<5> _135_ OAI21X1
XNAND2X1_11 vdd _136_ gnd state_11_bF$buf4 z_m<6> NAND2X1
XOAI21X1_37 gnd vdd _38__bF$buf3 _124__bF$buf0 _137_ z<6> OAI21X1
XOAI21X1_38 gnd vdd _36__bF$buf3 _136_ _20_<6> _137_ OAI21X1
XNAND2X1_12 vdd _138_ gnd state_11_bF$buf4 z_m<7> NAND2X1
XOAI21X1_39 gnd vdd _38__bF$buf0 _124__bF$buf2 _139_ z<7> OAI21X1
XOAI21X1_40 gnd vdd _36__bF$buf2 _138_ _20_<7> _139_ OAI21X1
XNAND2X1_13 vdd _140_ gnd state_11_bF$buf1 z_m<8> NAND2X1
XOAI21X1_41 gnd vdd _38__bF$buf3 _124__bF$buf3 _141_ z<8> OAI21X1
XOAI21X1_42 gnd vdd _36__bF$buf4 _140_ _20_<8> _141_ OAI21X1
XNAND2X1_14 vdd _142_ gnd state_11_bF$buf3 z_m<9> NAND2X1
XOAI21X1_43 gnd vdd _38__bF$buf2 _124__bF$buf1 _143_ z<9> OAI21X1
XOAI21X1_44 gnd vdd _36__bF$buf1 _142_ _20_<9> _143_ OAI21X1
XNAND2X1_15 vdd _144_ gnd state_11_bF$buf1 z_m<10> NAND2X1
XOAI21X1_45 gnd vdd _38__bF$buf4 _124__bF$buf0 _145_ z<10> OAI21X1
XOAI21X1_46 gnd vdd _36__bF$buf3 _144_ _20_<10> _145_ OAI21X1
XNAND2X1_16 vdd _146_ gnd state_11_bF$buf0 z_m<11> NAND2X1
XOAI21X1_47 gnd vdd _38__bF$buf0 _124__bF$buf1 _147_ z<11> OAI21X1
XOAI21X1_48 gnd vdd _36__bF$buf1 _146_ _20_<11> _147_ OAI21X1
XNAND2X1_17 vdd _148_ gnd state_11_bF$buf1 z_m<12> NAND2X1
XOAI21X1_49 gnd vdd _38__bF$buf3 _124__bF$buf3 _149_ z<12> OAI21X1
XOAI21X1_50 gnd vdd _36__bF$buf4 _148_ _20_<12> _149_ OAI21X1
XNAND2X1_18 vdd _150_ gnd state_11_bF$buf1 z_m<13> NAND2X1
XOAI21X1_51 gnd vdd _38__bF$buf3 _124__bF$buf3 _151_ z<13> OAI21X1
XOAI21X1_52 gnd vdd _36__bF$buf4 _150_ _20_<13> _151_ OAI21X1
XNAND2X1_19 vdd _152_ gnd state_11_bF$buf3 z_m<14> NAND2X1
XOAI21X1_53 gnd vdd _38__bF$buf0 _124__bF$buf1 _153_ z<14> OAI21X1
XOAI21X1_54 gnd vdd _36__bF$buf2 _152_ _20_<14> _153_ OAI21X1
XNAND2X1_20 vdd _154_ gnd state_11_bF$buf4 z_m<15> NAND2X1
XOAI21X1_55 gnd vdd _38__bF$buf4 _124__bF$buf0 _155_ z<15> OAI21X1
XOAI21X1_56 gnd vdd _36__bF$buf3 _154_ _20_<15> _155_ OAI21X1
XNAND2X1_21 vdd _156_ gnd state_11_bF$buf3 z_m<16> NAND2X1
XOAI21X1_57 gnd vdd _38__bF$buf2 _124__bF$buf1 _157_ z<16> OAI21X1
XOAI21X1_58 gnd vdd _36__bF$buf1 _156_ _20_<16> _157_ OAI21X1
XNAND2X1_22 vdd _158_ gnd state_11_bF$buf4 z_m<17> NAND2X1
XOAI21X1_59 gnd vdd _38__bF$buf4 _124__bF$buf2 _159_ z<17> OAI21X1
XOAI21X1_60 gnd vdd _36__bF$buf2 _158_ _20_<17> _159_ OAI21X1
XNAND2X1_23 vdd _160_ gnd state_11_bF$buf4 z_m<18> NAND2X1
XOAI21X1_61 gnd vdd _38__bF$buf4 _124__bF$buf0 _161_ z<18> OAI21X1
XOAI21X1_62 gnd vdd _36__bF$buf3 _160_ _20_<18> _161_ OAI21X1
XNAND2X1_24 vdd _162_ gnd state_11_bF$buf0 z_m<19> NAND2X1
XOAI21X1_63 gnd vdd _38__bF$buf4 _124__bF$buf0 _163_ z<19> OAI21X1
XOAI21X1_64 gnd vdd _36__bF$buf3 _162_ _20_<19> _163_ OAI21X1
XNAND2X1_25 vdd _164_ gnd state_11_bF$buf3 z_m<20> NAND2X1
XOAI21X1_65 gnd vdd _38__bF$buf0 _124__bF$buf1 _165_ z<20> OAI21X1
XOAI21X1_66 gnd vdd _36__bF$buf2 _164_ _20_<20> _165_ OAI21X1
XNAND2X1_26 vdd _166_ gnd state_11_bF$buf3 z_m<21> NAND2X1
XOAI21X1_67 gnd vdd _38__bF$buf4 _124__bF$buf2 _167_ z<21> OAI21X1
XOAI21X1_68 gnd vdd _36__bF$buf3 _166_ _20_<21> _167_ OAI21X1
XINVX2_5 vdd gnd _168_ count<0> INVX2
XNOR2X1_35 vdd _168_ gnd _169_ count<1> NOR2X1
XINVX1_48 _169_ _170_ vdd gnd INVX1
XNOR2X1_36 vdd count<3> gnd _171_ count<2> NOR2X1
XNAND3X1_20 count<5> vdd gnd count<4> _171_ _172_ NAND3X1
XNOR2X1_37 vdd _170_ gnd _173_ _172_ NOR2X1
XOAI21X1_69 gnd vdd _168_ _173_ _174_ state_1_bF$buf2 OAI21X1
XNOR2X1_38 vdd state_6_bF$buf3 gnd _175_ state_1_bF$buf2 NOR2X1
XINVX1_49 _175_ _176_ vdd gnd INVX1
XOAI21X1_70 gnd vdd _168_ _176_ _8_<0> _174_ OAI21X1
XINVX1_50 count<1> _177_ vdd gnd INVX1
XNOR2X1_39 vdd _177_ gnd _178_ _168_ NOR2X1
XOAI21X1_71 gnd vdd _172_ _170_ _179_ state_1_bF$buf2 OAI21X1
XNOR2X1_40 vdd _179_ gnd _180_ _178_ NOR2X1
XAOI21X1_1 gnd vdd count<1> _175_ _181_ _180_ AOI21X1
XAOI21X1_2 gnd vdd _168_ _177_ _8_<1> _181_ AOI21X1
XINVX8_2 vdd gnd state_6_bF$buf5 _182_ INVX8
XOAI21X1_72 gnd vdd state_1_bF$buf2 _182__bF$buf5 _183_ count<2> OAI21X1
XNAND2X1_27 vdd _184_ gnd state_1_bF$buf2 _178_ NAND2X1
XINVX1_51 count<2> _185_ vdd gnd INVX1
XNOR2X1_41 vdd _184_ gnd _186_ _185_ NOR2X1
XAOI21X1_3 gnd vdd _183_ _184_ _8_<2> _186_ AOI21X1
XOAI21X1_73 gnd vdd state_1_bF$buf2 _182__bF$buf5 _187_ count<3> OAI21X1
XMUX2X1_1 _186_ vdd gnd _8_<3> count<3> _187_ MUX2X1
XNAND2X1_28 vdd _188_ gnd count<3> _186_ NAND2X1
XOAI21X1_74 gnd vdd state_1_bF$buf2 _182__bF$buf2 _189_ count<4> OAI21X1
XINVX1_52 count<4> _190_ vdd gnd INVX1
XNOR2X1_42 vdd _188_ gnd _191_ _190_ NOR2X1
XAOI21X1_4 gnd vdd _188_ _189_ _8_<4> _191_ AOI21X1
XOAI21X1_75 gnd vdd state_1_bF$buf2 _182__bF$buf2 _192_ count<5> OAI21X1
XMUX2X1_2 _191_ vdd gnd _8_<5> count<5> _192_ MUX2X1
XINVX8_3 vdd gnd state_4_bF$buf6 _193_ INVX8
XNOR2X1_43 vdd _193_ gnd _1953_ rst NOR2X1
XINVX8_4 vdd gnd state_3_bF$buf1 _194_ INVX8
XNOR2X1_44 vdd _194__bF$buf1 gnd _1954_ rst NOR2X1
XINVX2_6 vdd gnd _195_ b_m<23> INVX2
XINVX4_1 vdd gnd _196_ state<10> INVX4
XNOR2X1_45 vdd _196_ gnd _197_ _195_ NOR2X1
XINVX1_53 _197_ _198_ vdd gnd INVX1
XNOR2X1_46 vdd _198_ gnd _1955_ rst NOR2X1
XINVX8_5 vdd gnd state_14_bF$buf4 _199_ INVX8
XNOR2X1_47 vdd _199__bF$buf5 gnd _1956_ rst NOR2X1
XINVX1_54 state_1_bF$buf2 _200_ vdd gnd INVX1
XNOR2X1_48 vdd _200_ gnd _201_ rst NOR2X1
XAND2X2_3 vdd gnd _173_ _201_ _1957_ AND2X2
XNAND3X1_21 input_b_stb vdd gnd state<8> _2005_ _202_ NAND3X1
XNOR2X1_49 vdd _202__bF$buf6 gnd _1958_ rst NOR2X1
XINVX1_55 rst _203_ vdd gnd INVX1
XINVX2_7 vdd gnd _204_ z_e<8> INVX2
XINVX1_56 z_e<0> _205_ vdd gnd INVX1
XINVX1_57 z_e<1> _206_ vdd gnd INVX1
XNOR2X1_50 vdd _206_ gnd _207_ _205_ NOR2X1
XINVX1_58 z_e<5> _208_ vdd gnd INVX1
XINVX1_59 z_e<4> _209_ vdd gnd INVX1
XNAND2X1_29 vdd _210_ gnd _208_ _209_ NAND2X1
XINVX2_8 vdd gnd _211_ z_e<6> INVX2
XNAND2X1_30 vdd _212_ gnd z_e<7> _211_ NAND2X1
XNOR2X1_51 vdd _210_ gnd _213_ _212_ NOR2X1
XNOR2X1_52 vdd z_e<2> gnd _214_ z_e<3> NOR2X1
XNAND2X1_31 vdd _215_ gnd _214_ _213_ NAND2X1
XOAI21X1_76 gnd vdd _207_ _215_ _216_ z_e<7> OAI21X1
XOAI21X1_77 gnd vdd _204_ _216_ _217_ z_e<9> OAI21X1
XINVX2_9 vdd gnd _218_ _217_ INVX2
XNAND2X1_32 vdd _219_ gnd z_e<1> _205_ NAND2X1
XNOR2X1_53 vdd _219_ gnd _220_ _204_ NOR2X1
XNAND3X1_22 _220_ vdd gnd _214_ _213_ _221_ NAND3X1
XNAND2X1_33 vdd _222_ gnd _221_ _218_ NAND2X1
XNAND2X1_34 vdd _223_ gnd state<13> _222_ NAND2X1
XINVX1_60 _223_ _224_ vdd gnd INVX1
XNAND2X1_35 vdd _225_ gnd _203_ _224_ NAND2X1
XINVX1_61 _225_ _1959_ vdd gnd INVX1
XINVX1_62 state<0> _226_ vdd gnd INVX1
XAND2X2_4 vdd gnd input_a_stb _2004_ _227_ AND2X2
XINVX8_6 vdd gnd state_7_bF$buf1 _228_ INVX8
XNAND2X1_36 vdd _229_ gnd output_z_ack _2007_ NAND2X1
XOAI21X1_78 gnd vdd _228__bF$buf0 _229_ _230_ _203_ OAI21X1
XINVX1_63 _230_ _231_ vdd gnd INVX1
XOAI21X1_79 gnd vdd _226_ _227_ _1960_ _231_ OAI21X1
XAOI21X1_5 gnd vdd _179_ _182__bF$buf5 _1961_ rst AOI21X1
XOAI21X1_80 gnd vdd z_m<23> _218_ _232_ state<5> OAI21X1
XINVX2_10 vdd gnd _233_ state<13> INVX2
XNOR2X1_54 vdd _222_ gnd _234_ _233_ NOR2X1
XINVX4_2 vdd gnd _235_ _234__bF$buf4 INVX4
XAOI21X1_6 gnd vdd _235_ _232_ _1962_ rst AOI21X1
XINVX1_64 _1972_ _236_ vdd gnd INVX1
XNOR2X1_55 vdd _196_ gnd _237_ b_m<23> NOR2X1
XINVX1_65 _237__bF$buf1 _238_ vdd gnd INVX1
XAOI21X1_7 gnd vdd _236_ _238_ _1963_ rst AOI21X1
XINVX8_7 vdd gnd state<9> _239_ INVX8
XINVX1_66 state<5> _240_ vdd gnd INVX1
XNOR2X1_56 vdd _218_ gnd _241_ z_m<23> NOR2X1
XINVX1_67 _241_ _242_ vdd gnd INVX1
XNOR2X1_57 vdd _242_ gnd _243_ _240_ NOR2X1
XINVX8_8 vdd gnd _243__bF$buf0 _244_ INVX8
XAOI21X1_8 gnd vdd _244_ _239__bF$buf2 _1964_ rst AOI21X1
XNAND2X1_37 vdd _245_ gnd state<0> _227_ NAND2X1
XNAND2X1_38 vdd _246_ gnd input_b_stb _2005_ NAND2X1
XNAND2X1_39 vdd _247_ gnd state<8> _246_ NAND2X1
XAOI21X1_9 gnd vdd _245__bF$buf4 _247_ _1965_ rst AOI21X1
XINVX1_68 _1974__bF$buf0 _248_ vdd gnd INVX1
XINVX1_69 _124__bF$buf2 _249_ vdd gnd INVX1
XAOI21X1_10 gnd vdd _249_ _248_ _1966_ rst AOI21X1
XNOR2X1_58 vdd _51_ gnd _250_ _79_ NOR2X1
XOAI21X1_81 gnd vdd _250_ _123_ _251_ state_12_bF$buf1 OAI21X1
XAOI21X1_11 gnd vdd _229_ state_7_bF$buf2 _252_ state_11_bF$buf0 AOI21X1
XAOI21X1_12 gnd vdd _251_ _252_ _1967_ rst AOI21X1
XINVX2_11 vdd gnd _253_ divisor<0> INVX2
XNAND2X1_40 vdd _254_ gnd state_6_bF$buf7 b_m<0> NAND2X1
XOAI21X1_82 gnd vdd state_6_bF$buf7 _253_ _10_<0> _254_ OAI21X1
XINVX1_70 divisor<1> _255_ vdd gnd INVX1
XNAND2X1_41 vdd _256_ gnd state_6_bF$buf2 b_m<1> NAND2X1