* XSpice netlist created from SPICE and liberty sources by spi2xspice.py
*SPICE netlist created from BLIF module fp_divider by blif2BSpice
.subckt fp_divider a_vdd a_gnd a_input_a_0_ a_input_a_1_ a_input_a_2_ a_input_a_3_ a_input_a_4_ a_input_a_5_ a_input_a_6_ a_input_a_7_ a_input_a_8_ a_input_a_9_ a_input_a_10_ a_input_a_11_ a_input_a_12_ a_input_a_13_ a_input_a_14_ a_input_a_15_ a_input_a_16_ a_input_a_17_ a_input_a_18_ a_input_a_19_ a_input_a_20_ a_input_a_21_ a_input_a_22_ a_input_a_23_ a_input_a_24_ a_input_a_25_ a_input_a_26_ a_input_a_27_ a_input_a_28_ a_input_a_29_ a_input_a_30_ a_input_a_31_ a_input_b_0_ a_input_b_1_ a_input_b_2_ a_input_b_3_ a_input_b_4_ a_input_b_5_ a_input_b_6_ a_input_b_7_ a_input_b_8_ a_input_b_9_ a_input_b_10_ a_input_b_11_ a_input_b_12_ a_input_b_13_ a_input_b_14_ a_input_b_15_ a_input_b_16_ a_input_b_17_ a_input_b_18_ a_input_b_19_ a_input_b_20_ a_input_b_21_ a_input_b_22_ a_input_b_23_ a_input_b_24_ a_input_b_25_ a_input_b_26_ a_input_b_27_ a_input_b_28_ a_input_b_29_ a_input_b_30_ a_input_b_31_ a_input_a_stb a_input_b_stb a_output_z_ack a_clk a_rst a_output_z_0_ a_output_z_1_ a_output_z_2_ a_output_z_3_ a_output_z_4_ a_output_z_5_ a_output_z_6_ a_output_z_7_ a_output_z_8_ a_output_z_9_ a_output_z_10_ a_output_z_11_ a_output_z_12_ a_output_z_13_ a_output_z_14_ a_output_z_15_ a_output_z_16_ a_output_z_17_ a_output_z_18_ a_output_z_19_ a_output_z_20_ a_output_z_21_ a_output_z_22_ a_output_z_23_ a_output_z_24_ a_output_z_25_ a_output_z_26_ a_output_z_27_ a_output_z_28_ a_output_z_29_ a_output_z_30_ a_output_z_31_ a_output_z_stb a_input_a_ack a_input_b_ack
ABUFX4_1 [clk] clk_hier0_bF$buf6 d_lut_BUFX4
ABUFX4_2 [clk] clk_hier0_bF$buf5 d_lut_BUFX4
ABUFX4_3 [clk] clk_hier0_bF$buf4 d_lut_BUFX4
ABUFX4_4 [clk] clk_hier0_bF$buf3 d_lut_BUFX4
ABUFX4_5 [clk] clk_hier0_bF$buf2 d_lut_BUFX4
ABUFX4_6 [clk] clk_hier0_bF$buf1 d_lut_BUFX4
ABUFX4_7 [clk] clk_hier0_bF$buf0 d_lut_BUFX4
ABUFX4_8 [state_12_] state_12_bF$buf4 d_lut_BUFX4
ABUFX2_1 [state_12_] state_12_bF$buf3 d_lut_BUFX2
ABUFX4_9 [state_12_] state_12_bF$buf2 d_lut_BUFX4
ABUFX4_10 [state_12_] state_12_bF$buf1 d_lut_BUFX4
ABUFX4_11 [state_12_] state_12_bF$buf0 d_lut_BUFX4
ABUFX4_12 [_124_] _124__bF$buf3 d_lut_BUFX4
ABUFX4_13 [_124_] _124__bF$buf2 d_lut_BUFX4
ABUFX4_14 [_124_] _124__bF$buf1 d_lut_BUFX4
ABUFX4_15 [_124_] _124__bF$buf0 d_lut_BUFX4
ABUFX4_16 [_194_] _194__bF$buf3 d_lut_BUFX4
ABUFX2_2 [_194_] _194__bF$buf2 d_lut_BUFX2
ABUFX2_3 [_194_] _194__bF$buf1 d_lut_BUFX2
ABUFX2_4 [_194_] _194__bF$buf0 d_lut_BUFX2
ABUFX4_17 [state_7_] state_7_bF$buf6 d_lut_BUFX4
ABUFX4_18 [state_7_] state_7_bF$buf5 d_lut_BUFX4
ABUFX4_19 [state_7_] state_7_bF$buf4 d_lut_BUFX4
ABUFX4_20 [state_7_] state_7_bF$buf3 d_lut_BUFX4
ABUFX4_21 [state_7_] state_7_bF$buf2 d_lut_BUFX4
ABUFX4_22 [state_7_] state_7_bF$buf1 d_lut_BUFX4
ABUFX4_23 [state_7_] state_7_bF$buf0 d_lut_BUFX4
ABUFX4_24 [state_4_] state_4_bF$buf6 d_lut_BUFX4
ABUFX4_25 [state_4_] state_4_bF$buf5 d_lut_BUFX4
ABUFX4_26 [state_4_] state_4_bF$buf4 d_lut_BUFX4
ABUFX4_27 [state_4_] state_4_bF$buf3 d_lut_BUFX4
ABUFX4_28 [state_4_] state_4_bF$buf2 d_lut_BUFX4
ABUFX4_29 [state_4_] state_4_bF$buf1 d_lut_BUFX4
ABUFX4_30 [state_4_] state_4_bF$buf0 d_lut_BUFX4
ABUFX4_31 [clk_hier0_bF$buf6] clk_bF$buf56 d_lut_BUFX4
ABUFX4_32 [clk_hier0_bF$buf5] clk_bF$buf55 d_lut_BUFX4
ABUFX4_33 [clk_hier0_bF$buf4] clk_bF$buf54 d_lut_BUFX4
ABUFX4_34 [clk_hier0_bF$buf3] clk_bF$buf53 d_lut_BUFX4
ABUFX4_35 [clk_hier0_bF$buf2] clk_bF$buf52 d_lut_BUFX4
ABUFX4_36 [clk_hier0_bF$buf1] clk_bF$buf51 d_lut_BUFX4
ABUFX4_37 [clk_hier0_bF$buf0] clk_bF$buf50 d_lut_BUFX4
ABUFX4_38 [clk_hier0_bF$buf6] clk_bF$buf49 d_lut_BUFX4
ABUFX4_39 [clk_hier0_bF$buf5] clk_bF$buf48 d_lut_BUFX4
ABUFX4_40 [clk_hier0_bF$buf4] clk_bF$buf47 d_lut_BUFX4
ABUFX4_41 [clk_hier0_bF$buf3] clk_bF$buf46 d_lut_BUFX4
ABUFX4_42 [clk_hier0_bF$buf2] clk_bF$buf45 d_lut_BUFX4
ABUFX4_43 [clk_hier0_bF$buf1] clk_bF$buf44 d_lut_BUFX4
ABUFX4_44 [clk_hier0_bF$buf0] clk_bF$buf43 d_lut_BUFX4
ABUFX4_45 [clk_hier0_bF$buf6] clk_bF$buf42 d_lut_BUFX4
ABUFX4_46 [clk_hier0_bF$buf5] clk_bF$buf41 d_lut_BUFX4
ABUFX4_47 [clk_hier0_bF$buf4] clk_bF$buf40 d_lut_BUFX4
ABUFX4_48 [clk_hier0_bF$buf3] clk_bF$buf39 d_lut_BUFX4
ABUFX4_49 [clk_hier0_bF$buf2] clk_bF$buf38 d_lut_BUFX4
ABUFX4_50 [clk_hier0_bF$buf1] clk_bF$buf37 d_lut_BUFX4
ABUFX4_51 [clk_hier0_bF$buf0] clk_bF$buf36 d_lut_BUFX4
ABUFX4_52 [clk_hier0_bF$buf6] clk_bF$buf35 d_lut_BUFX4
ABUFX4_53 [clk_hier0_bF$buf5] clk_bF$buf34 d_lut_BUFX4
ABUFX4_54 [clk_hier0_bF$buf4] clk_bF$buf33 d_lut_BUFX4
ABUFX4_55 [clk_hier0_bF$buf3] clk_bF$buf32 d_lut_BUFX4
ABUFX4_56 [clk_hier0_bF$buf2] clk_bF$buf31 d_lut_BUFX4
ABUFX4_57 [clk_hier0_bF$buf1] clk_bF$buf30 d_lut_BUFX4
ABUFX4_58 [clk_hier0_bF$buf0] clk_bF$buf29 d_lut_BUFX4
ABUFX4_59 [clk_hier0_bF$buf6] clk_bF$buf28 d_lut_BUFX4
ABUFX4_60 [clk_hier0_bF$buf5] clk_bF$buf27 d_lut_BUFX4
ABUFX4_61 [clk_hier0_bF$buf4] clk_bF$buf26 d_lut_BUFX4
ABUFX4_62 [clk_hier0_bF$buf3] clk_bF$buf25 d_lut_BUFX4
ABUFX4_63 [clk_hier0_bF$buf2] clk_bF$buf24 d_lut_BUFX4
ABUFX4_64 [clk_hier0_bF$buf1] clk_bF$buf23 d_lut_BUFX4
ABUFX4_65 [clk_hier0_bF$buf0] clk_bF$buf22 d_lut_BUFX4
ABUFX4_66 [clk_hier0_bF$buf6] clk_bF$buf21 d_lut_BUFX4
ABUFX4_67 [clk_hier0_bF$buf5] clk_bF$buf20 d_lut_BUFX4
ABUFX4_68 [clk_hier0_bF$buf4] clk_bF$buf19 d_lut_BUFX4
ABUFX4_69 [clk_hier0_bF$buf3] clk_bF$buf18 d_lut_BUFX4
ABUFX4_70 [clk_hier0_bF$buf2] clk_bF$buf17 d_lut_BUFX4
ABUFX4_71 [clk_hier0_bF$buf1] clk_bF$buf16 d_lut_BUFX4
ABUFX4_72 [clk_hier0_bF$buf0] clk_bF$buf15 d_lut_BUFX4
ABUFX4_73 [clk_hier0_bF$buf6] clk_bF$buf14 d_lut_BUFX4
ABUFX4_74 [clk_hier0_bF$buf5] clk_bF$buf13 d_lut_BUFX4
ABUFX4_75 [clk_hier0_bF$buf4] clk_bF$buf12 d_lut_BUFX4
ABUFX4_76 [clk_hier0_bF$buf3] clk_bF$buf11 d_lut_BUFX4
ABUFX4_77 [clk_hier0_bF$buf2] clk_bF$buf10 d_lut_BUFX4
ABUFX4_78 [clk_hier0_bF$buf1] clk_bF$buf9 d_lut_BUFX4
ABUFX4_79 [clk_hier0_bF$buf0] clk_bF$buf8 d_lut_BUFX4
ABUFX4_80 [clk_hier0_bF$buf6] clk_bF$buf7 d_lut_BUFX4
ABUFX4_81 [clk_hier0_bF$buf5] clk_bF$buf6 d_lut_BUFX4
ABUFX4_82 [clk_hier0_bF$buf4] clk_bF$buf5 d_lut_BUFX4
ABUFX4_83 [clk_hier0_bF$buf3] clk_bF$buf4 d_lut_BUFX4
ABUFX4_84 [clk_hier0_bF$buf2] clk_bF$buf3 d_lut_BUFX4
ABUFX4_85 [clk_hier0_bF$buf1] clk_bF$buf2 d_lut_BUFX4
ABUFX4_86 [clk_hier0_bF$buf0] clk_bF$buf1 d_lut_BUFX4
ABUFX4_87 [clk_hier0_bF$buf6] clk_bF$buf0 d_lut_BUFX4
ABUFX4_88 [state_1_] state_1_bF$buf6 d_lut_BUFX4
ABUFX4_89 [state_1_] state_1_bF$buf5 d_lut_BUFX4
ABUFX4_90 [state_1_] state_1_bF$buf4 d_lut_BUFX4
ABUFX4_91 [state_1_] state_1_bF$buf3 d_lut_BUFX4
ABUFX4_92 [state_1_] state_1_bF$buf2 d_lut_BUFX4
ABUFX4_93 [state_1_] state_1_bF$buf1 d_lut_BUFX4
ABUFX4_94 [state_1_] state_1_bF$buf0 d_lut_BUFX4
ABUFX4_95 [_567_] _567__bF$buf5 d_lut_BUFX4
ABUFX4_96 [_567_] _567__bF$buf4 d_lut_BUFX4
ABUFX4_97 [_567_] _567__bF$buf3 d_lut_BUFX4
ABUFX4_98 [_567_] _567__bF$buf2 d_lut_BUFX4
ABUFX4_99 [_567_] _567__bF$buf1 d_lut_BUFX4
ABUFX4_100 [_567_] _567__bF$buf0 d_lut_BUFX4
ABUFX4_101 [_36_] _36__bF$buf4 d_lut_BUFX4
ABUFX4_102 [_36_] _36__bF$buf3 d_lut_BUFX4
ABUFX4_103 [_36_] _36__bF$buf2 d_lut_BUFX4
ABUFX4_104 [_36_] _36__bF$buf1 d_lut_BUFX4
ABUFX4_105 [_36_] _36__bF$buf0 d_lut_BUFX4
ABUFX4_106 [_182_] _182__bF$buf6 d_lut_BUFX4
ABUFX4_107 [_182_] _182__bF$buf5 d_lut_BUFX4
ABUFX4_108 [_182_] _182__bF$buf4 d_lut_BUFX4
ABUFX4_109 [_182_] _182__bF$buf3 d_lut_BUFX4
ABUFX4_110 [_182_] _182__bF$buf2 d_lut_BUFX4
ABUFX4_111 [_182_] _182__bF$buf1 d_lut_BUFX4
ABUFX4_112 [_182_] _182__bF$buf0 d_lut_BUFX4
ABUFX4_113 [_561_] _561__bF$buf4 d_lut_BUFX4
ABUFX4_114 [_561_] _561__bF$buf3 d_lut_BUFX4
ABUFX4_115 [_561_] _561__bF$buf2 d_lut_BUFX4
ABUFX4_116 [_561_] _561__bF$buf1 d_lut_BUFX4
ABUFX4_117 [_561_] _561__bF$buf0 d_lut_BUFX4
ABUFX4_118 [_1973_] _1973__bF$buf3 d_lut_BUFX4
ABUFX4_119 [_1973_] _1973__bF$buf2 d_lut_BUFX4
ABUFX4_120 [_1973_] _1973__bF$buf1 d_lut_BUFX4
ABUFX4_121 [_1973_] _1973__bF$buf0 d_lut_BUFX4
ABUFX4_122 [state_14_] state_14_bF$buf7 d_lut_BUFX4
ABUFX4_123 [state_14_] state_14_bF$buf6 d_lut_BUFX4
ABUFX4_124 [state_14_] state_14_bF$buf5 d_lut_BUFX4
ABUFX4_125 [state_14_] state_14_bF$buf4 d_lut_BUFX4
ABUFX4_126 [state_14_] state_14_bF$buf3 d_lut_BUFX4
ABUFX4_127 [state_14_] state_14_bF$buf2 d_lut_BUFX4
ABUFX4_128 [state_14_] state_14_bF$buf1 d_lut_BUFX4
ABUFX4_129 [state_14_] state_14_bF$buf0 d_lut_BUFX4
ABUFX4_130 [state_11_] state_11_bF$buf4 d_lut_BUFX4
ABUFX4_131 [state_11_] state_11_bF$buf3 d_lut_BUFX4
ABUFX4_132 [state_11_] state_11_bF$buf2 d_lut_BUFX4
ABUFX4_133 [state_11_] state_11_bF$buf1 d_lut_BUFX4
ABUFX4_134 [state_11_] state_11_bF$buf0 d_lut_BUFX4
ABUFX4_135 [_199_] _199__bF$buf6 d_lut_BUFX4
ABUFX4_136 [_199_] _199__bF$buf5 d_lut_BUFX4
ABUFX4_137 [_199_] _199__bF$buf4 d_lut_BUFX4
ABUFX4_138 [_199_] _199__bF$buf3 d_lut_BUFX4
ABUFX4_139 [_199_] _199__bF$buf2 d_lut_BUFX4
ABUFX4_140 [_199_] _199__bF$buf1 d_lut_BUFX4
ABUFX4_141 [_199_] _199__bF$buf0 d_lut_BUFX4
ABUFX4_142 [state_6_] state_6_bF$buf7 d_lut_BUFX4
ABUFX4_143 [state_6_] state_6_bF$buf6 d_lut_BUFX4
ABUFX4_144 [state_6_] state_6_bF$buf5 d_lut_BUFX4
ABUFX4_145 [state_6_] state_6_bF$buf4 d_lut_BUFX4
ABUFX4_146 [state_6_] state_6_bF$buf3 d_lut_BUFX4
ABUFX4_147 [state_6_] state_6_bF$buf2 d_lut_BUFX4
ABUFX4_148 [state_6_] state_6_bF$buf1 d_lut_BUFX4
ABUFX4_149 [state_6_] state_6_bF$buf0 d_lut_BUFX4
ABUFX4_150 [state_3_] state_3_bF$buf4 d_lut_BUFX4
ABUFX4_151 [state_3_] state_3_bF$buf3 d_lut_BUFX4
ABUFX4_152 [state_3_] state_3_bF$buf2 d_lut_BUFX4
ABUFX4_153 [state_3_] state_3_bF$buf1 d_lut_BUFX4
ABUFX4_154 [state_3_] state_3_bF$buf0 d_lut_BUFX4
ABUFX4_155 [_38_] _38__bF$buf4 d_lut_BUFX4
ABUFX4_156 [_38_] _38__bF$buf3 d_lut_BUFX4
ABUFX4_157 [_38_] _38__bF$buf2 d_lut_BUFX4
ABUFX4_158 [_38_] _38__bF$buf1 d_lut_BUFX4
ABUFX4_159 [_38_] _38__bF$buf0 d_lut_BUFX4
ABUFX4_160 [_243_] _243__bF$buf3 d_lut_BUFX4
ABUFX4_161 [_243_] _243__bF$buf2 d_lut_BUFX4
ABUFX4_162 [_243_] _243__bF$buf1 d_lut_BUFX4
ABUFX4_163 [_243_] _243__bF$buf0 d_lut_BUFX4
ABUFX4_164 [_202_] _202__bF$buf7 d_lut_BUFX4
ABUFX4_165 [_202_] _202__bF$buf6 d_lut_BUFX4
ABUFX4_166 [_202_] _202__bF$buf5 d_lut_BUFX4
ABUFX4_167 [_202_] _202__bF$buf4 d_lut_BUFX4
ABUFX4_168 [_202_] _202__bF$buf3 d_lut_BUFX4
ABUFX4_169 [_202_] _202__bF$buf2 d_lut_BUFX4
ABUFX4_170 [_202_] _202__bF$buf1 d_lut_BUFX4
ABUFX4_171 [_202_] _202__bF$buf0 d_lut_BUFX4
ABUFX4_172 [_563_] _563__bF$buf6 d_lut_BUFX4
ABUFX4_173 [_563_] _563__bF$buf5 d_lut_BUFX4
ABUFX4_174 [_563_] _563__bF$buf4 d_lut_BUFX4
ABUFX4_175 [_563_] _563__bF$buf3 d_lut_BUFX4
ABUFX4_176 [_563_] _563__bF$buf2 d_lut_BUFX4
ABUFX4_177 [_563_] _563__bF$buf1 d_lut_BUFX4
ABUFX4_178 [_563_] _563__bF$buf0 d_lut_BUFX4
ABUFX4_179 [_237_] _237__bF$buf3 d_lut_BUFX4
ABUFX4_180 [_237_] _237__bF$buf2 d_lut_BUFX4
ABUFX4_181 [_237_] _237__bF$buf1 d_lut_BUFX4
ABUFX4_182 [_237_] _237__bF$buf0 d_lut_BUFX4
ABUFX4_183 [_234_] _234__bF$buf4 d_lut_BUFX4
ABUFX4_184 [_234_] _234__bF$buf3 d_lut_BUFX4
ABUFX4_185 [_234_] _234__bF$buf2 d_lut_BUFX4
ABUFX4_186 [_234_] _234__bF$buf1 d_lut_BUFX4
ABUFX4_187 [_234_] _234__bF$buf0 d_lut_BUFX4
ABUFX4_188 [_228_] _228__bF$buf3 d_lut_BUFX4
ABUFX2_5 [_228_] _228__bF$buf2 d_lut_BUFX2
ABUFX4_189 [_228_] _228__bF$buf1 d_lut_BUFX4
ABUFX2_6 [_228_] _228__bF$buf0 d_lut_BUFX2
ABUFX4_190 [_1258_] _1258__bF$buf5 d_lut_BUFX4
ABUFX4_191 [_1258_] _1258__bF$buf4 d_lut_BUFX4
ABUFX4_192 [_1258_] _1258__bF$buf3 d_lut_BUFX4
ABUFX4_193 [_1258_] _1258__bF$buf2 d_lut_BUFX4
ABUFX4_194 [_1258_] _1258__bF$buf1 d_lut_BUFX4
ABUFX4_195 [_1258_] _1258__bF$buf0 d_lut_BUFX4
ABUFX4_196 [_871_] _871__bF$buf7 d_lut_BUFX4
ABUFX4_197 [_871_] _871__bF$buf6 d_lut_BUFX4
ABUFX4_198 [_871_] _871__bF$buf5 d_lut_BUFX4
ABUFX4_199 [_871_] _871__bF$buf4 d_lut_BUFX4
ABUFX4_200 [_871_] _871__bF$buf3 d_lut_BUFX4
ABUFX4_201 [_871_] _871__bF$buf2 d_lut_BUFX4
ABUFX4_202 [_871_] _871__bF$buf1 d_lut_BUFX4
ABUFX4_203 [_871_] _871__bF$buf0 d_lut_BUFX4
ABUFX4_204 [_245_] _245__bF$buf7 d_lut_BUFX4
ABUFX4_205 [_245_] _245__bF$buf6 d_lut_BUFX4
ABUFX4_206 [_245_] _245__bF$buf5 d_lut_BUFX4
ABUFX4_207 [_245_] _245__bF$buf4 d_lut_BUFX4
ABUFX4_208 [_245_] _245__bF$buf3 d_lut_BUFX4
ABUFX4_209 [_245_] _245__bF$buf2 d_lut_BUFX4
ABUFX4_210 [_245_] _245__bF$buf1 d_lut_BUFX4
ABUFX4_211 [_245_] _245__bF$buf0 d_lut_BUFX4
ABUFX4_212 [_239_] _239__bF$buf3 d_lut_BUFX4
ABUFX4_213 [_239_] _239__bF$buf2 d_lut_BUFX4
ABUFX4_214 [_239_] _239__bF$buf1 d_lut_BUFX4
ABUFX4_215 [_239_] _239__bF$buf0 d_lut_BUFX4
ABUFX4_216 [_562_] _562__bF$buf6 d_lut_BUFX4
ABUFX4_217 [_562_] _562__bF$buf5 d_lut_BUFX4
ABUFX4_218 [_562_] _562__bF$buf4 d_lut_BUFX4
ABUFX4_219 [_562_] _562__bF$buf3 d_lut_BUFX4
ABUFX4_220 [_562_] _562__bF$buf2 d_lut_BUFX4
ABUFX4_221 [_562_] _562__bF$buf1 d_lut_BUFX4
ABUFX4_222 [_562_] _562__bF$buf0 d_lut_BUFX4
ABUFX4_223 [_1974_] _1974__bF$buf3 d_lut_BUFX4
ABUFX4_224 [_1974_] _1974__bF$buf2 d_lut_BUFX4
ABUFX4_225 [_1974_] _1974__bF$buf1 d_lut_BUFX4
ABUFX4_226 [_1974_] _1974__bF$buf0 d_lut_BUFX4
ABUFX4_227 [_903_] _903__bF$buf3 d_lut_BUFX4
ABUFX4_228 [_903_] _903__bF$buf2 d_lut_BUFX4
ABUFX4_229 [_903_] _903__bF$buf1 d_lut_BUFX4
ABUFX4_230 [_903_] _903__bF$buf0 d_lut_BUFX4
AINVX1_1 [a_m_3_] _1968_ d_lut_INVX1
ANOR2X1_1 [state_2_ state_4_bF$buf6] _1969_ d_lut_NOR2X1
AINVX1_2 [a_m_23_] _1970_ d_lut_INVX1
AINVX2_1 [state_2_] _1971_ d_lut_INVX2
ANOR2X1_2 [_1970_ _1971_] _1972_ d_lut_NOR2X1
ANOR2X1_3 [_1969_ _1972_] _1973_ d_lut_NOR2X1
ANOR2X1_4 [a_m_23_ _1971_] _1974_ d_lut_NOR2X1
AAOI22X1_1 [a_3_ state_4_bF$buf5 a_m_2_ _1974__bF$buf3] _1975_ d_lut_AOI22X1
AOAI21X1_1 [_1968_ _1973__bF$buf3 _1975_] _2__3_ d_lut_OAI21X1
AINVX1_3 [a_m_4_] _1976_ d_lut_INVX1
AAOI22X1_2 [state_4_bF$buf4 a_4_ a_m_3_ _1974__bF$buf2] _1977_ d_lut_AOI22X1
AOAI21X1_2 [_1976_ _1973__bF$buf2 _1977_] _2__4_ d_lut_OAI21X1
AINVX1_4 [a_m_5_] _1978_ d_lut_INVX1
AAOI22X1_3 [state_4_bF$buf3 a_5_ a_m_4_ _1974__bF$buf1] _1979_ d_lut_AOI22X1
AOAI21X1_3 [_1978_ _1973__bF$buf1 _1979_] _2__5_ d_lut_OAI21X1
AINVX1_5 [a_m_6_] _1980_ d_lut_INVX1
AAOI22X1_4 [state_4_bF$buf2 a_6_ a_m_5_ _1974__bF$buf0] _1981_ d_lut_AOI22X1
AOAI21X1_4 [_1980_ _1973__bF$buf0 _1981_] _2__6_ d_lut_OAI21X1
AINVX1_6 [a_m_7_] _1982_ d_lut_INVX1
AAOI22X1_5 [state_4_bF$buf1 a_7_ a_m_6_ _1974__bF$buf3] _1983_ d_lut_AOI22X1
AOAI21X1_5 [_1982_ _1973__bF$buf3 _1983_] _2__7_ d_lut_OAI21X1
AINVX1_7 [a_m_8_] _1984_ d_lut_INVX1
AAOI22X1_6 [state_4_bF$buf0 a_8_ a_m_7_ _1974__bF$buf2] _1985_ d_lut_AOI22X1
AOAI21X1_6 [_1984_ _1973__bF$buf2 _1985_] _2__8_ d_lut_OAI21X1
AINVX1_8 [a_m_9_] _1986_ d_lut_INVX1
AAOI22X1_7 [state_4_bF$buf6 a_9_ a_m_8_ _1974__bF$buf1] _1987_ d_lut_AOI22X1
AOAI21X1_7 [_1986_ _1973__bF$buf1 _1987_] _2__9_ d_lut_OAI21X1
AINVX1_9 [a_m_10_] _1988_ d_lut_INVX1
AAOI22X1_8 [state_4_bF$buf5 a_10_ a_m_9_ _1974__bF$buf0] _1989_ d_lut_AOI22X1
AOAI21X1_8 [_1988_ _1973__bF$buf0 _1989_] _2__10_ d_lut_OAI21X1
AINVX1_10 [a_m_11_] _1990_ d_lut_INVX1
AAOI22X1_9 [state_4_bF$buf4 a_11_ a_m_10_ _1974__bF$buf3] _1991_ d_lut_AOI22X1
AOAI21X1_9 [_1990_ _1973__bF$buf3 _1991_] _2__11_ d_lut_OAI21X1
AINVX1_11 [a_m_12_] _1992_ d_lut_INVX1
AAOI22X1_10 [state_4_bF$buf3 a_12_ a_m_11_ _1974__bF$buf2] _1993_ d_lut_AOI22X1
AOAI21X1_10 [_1992_ _1973__bF$buf2 _1993_] _2__12_ d_lut_OAI21X1
AINVX1_12 [a_m_13_] _1994_ d_lut_INVX1
AAOI22X1_11 [state_4_bF$buf2 a_13_ a_m_12_ _1974__bF$buf1] _1995_ d_lut_AOI22X1
AOAI21X1_11 [_1994_ _1973__bF$buf1 _1995_] _2__13_ d_lut_OAI21X1
AINVX1_13 [a_m_14_] _1996_ d_lut_INVX1
AAOI22X1_12 [state_4_bF$buf1 a_14_ a_m_13_ _1974__bF$buf0] _1997_ d_lut_AOI22X1
AOAI21X1_12 [_1996_ _1973__bF$buf0 _1997_] _2__14_ d_lut_OAI21X1
AINVX1_14 [a_m_15_] _1998_ d_lut_INVX1
AAOI22X1_13 [state_4_bF$buf0 a_15_ a_m_14_ _1974__bF$buf3] _1999_ d_lut_AOI22X1
AOAI21X1_13 [_1998_ _1973__bF$buf3 _1999_] _2__15_ d_lut_OAI21X1
AINVX1_15 [a_m_16_] _2000_ d_lut_INVX1
AAOI22X1_14 [state_4_bF$buf6 a_16_ a_m_15_ _1974__bF$buf2] _2001_ d_lut_AOI22X1
AOAI21X1_14 [_2000_ _1973__bF$buf2 _2001_] _2__16_ d_lut_OAI21X1
AINVX1_16 [a_m_17_] _2002_ d_lut_INVX1
AAOI22X1_15 [state_4_bF$buf5 a_17_ a_m_16_ _1974__bF$buf1] _2003_ d_lut_AOI22X1
AOAI21X1_15 [_2002_ _1973__bF$buf1 _2003_] _2__17_ d_lut_OAI21X1
AINVX1_17 [a_m_18_] _24_ d_lut_INVX1
AAOI22X1_16 [state_4_bF$buf4 a_18_ a_m_17_ _1974__bF$buf0] _25_ d_lut_AOI22X1
AOAI21X1_16 [_24_ _1973__bF$buf0 _25_] _2__18_ d_lut_OAI21X1
AINVX1_18 [a_m_19_] _26_ d_lut_INVX1
AAOI22X1_17 [state_4_bF$buf3 a_19_ a_m_18_ _1974__bF$buf3] _27_ d_lut_AOI22X1
AOAI21X1_17 [_26_ _1973__bF$buf3 _27_] _2__19_ d_lut_OAI21X1
AINVX1_19 [a_m_20_] _28_ d_lut_INVX1
AAOI22X1_18 [state_4_bF$buf2 a_20_ a_m_19_ _1974__bF$buf2] _29_ d_lut_AOI22X1
AOAI21X1_18 [_28_ _1973__bF$buf2 _29_] _2__20_ d_lut_OAI21X1
AINVX1_20 [a_m_21_] _30_ d_lut_INVX1
AAOI22X1_19 [state_4_bF$buf1 a_21_ a_m_20_ _1974__bF$buf1] _31_ d_lut_AOI22X1
AOAI21X1_19 [_30_ _1973__bF$buf1 _31_] _2__21_ d_lut_OAI21X1
AINVX1_21 [a_m_22_] _32_ d_lut_INVX1
AAOI22X1_20 [state_4_bF$buf0 a_22_ a_m_21_ _1974__bF$buf0] _33_ d_lut_AOI22X1
AOAI21X1_20 [_32_ _1973__bF$buf0 _33_] _2__22_ d_lut_OAI21X1
AINVX1_22 [z_e_9_] _34_ d_lut_INVX1
AOAI21X1_21 [z_e_8_ z_e_7_ _34_] _35_ d_lut_OAI21X1
AINVX8_1 [_35_] _36_ d_lut_INVX8
ANAND2X1_1 [state_11_bF$buf4 z_m_0_] _37_ d_lut_NAND2X1
ANOR2X1_5 [state_12_bF$buf4 state_11_bF$buf3] _38_ d_lut_NOR2X1
ANOR2X1_6 [b_e_5_ b_e_4_] _39_ d_lut_NOR2X1
AINVX1_23 [_39_] _40_ d_lut_INVX1
AINVX1_24 [b_e_6_] _41_ d_lut_INVX1
ANAND2X1_2 [b_e_7_ _41_] _42_ d_lut_NAND2X1
ANOR2X1_7 [_42_ _40_] _43_ d_lut_NOR2X1
AINVX1_25 [_43_] _44_ d_lut_INVX1
ANOR2X1_8 [b_e_3_ b_e_2_] _45_ d_lut_NOR2X1
AINVX1_26 [b_e_9_] _46_ d_lut_INVX1
ANOR2X1_9 [b_e_1_ _46_] _47_ d_lut_NOR2X1
AAND2X2_1 [b_e_0_ b_e_8_] _48_ d_lut_AND2X2
ANAND3X1_1 [_45_ _47_ _48_] _49_ d_lut_NAND3X1
ANOR2X1_10 [_49_ _44_] _50_ d_lut_NOR2X1
AINVX2_2 [_50_] _51_ d_lut_INVX2
AINVX1_27 [b_m_21_] _52_ d_lut_INVX1
AINVX1_28 [b_m_20_] _53_ d_lut_INVX1
ANOR2X1_11 [b_m_23_ b_m_22_] _54_ d_lut_NOR2X1
ANAND3X1_2 [_52_ _53_ _54_] _55_ d_lut_NAND3X1
AINVX1_29 [b_m_17_] _56_ d_lut_INVX1
AINVX1_30 [b_m_16_] _57_ d_lut_INVX1
ANOR2X1_12 [b_m_19_ b_m_18_] _58_ d_lut_NOR2X1
ANAND3X1_3 [_56_ _57_ _58_] _59_ d_lut_NAND3X1
ANOR2X1_13 [_55_ _59_] _60_ d_lut_NOR2X1
AINVX1_31 [b_m_1_] _61_ d_lut_INVX1
AINVX1_32 [b_m_0_] _62_ d_lut_INVX1
ANOR2X1_14 [b_m_3_ b_m_2_] _63_ d_lut_NOR2X1
ANAND3X1_4 [_61_ _62_ _63_] _64_ d_lut_NAND3X1
AINVX1_33 [b_m_7_] _65_ d_lut_INVX1
AINVX1_34 [b_m_6_] _66_ d_lut_INVX1
ANOR2X1_15 [b_m_5_ b_m_4_] _67_ d_lut_NOR2X1
ANAND3X1_5 [_65_ _66_ _67_] _68_ d_lut_NAND3X1
ANOR2X1_16 [_64_ _68_] _69_ d_lut_NOR2X1
AINVX1_35 [b_m_15_] _70_ d_lut_INVX1
AINVX1_36 [b_m_14_] _71_ d_lut_INVX1
ANOR2X1_17 [b_m_13_ b_m_12_] _72_ d_lut_NOR2X1
ANAND3X1_6 [_70_ _71_ _72_] _73_ d_lut_NAND3X1
AINVX1_37 [b_m_9_] _74_ d_lut_INVX1
AINVX1_38 [b_m_8_] _75_ d_lut_INVX1
ANOR2X1_18 [b_m_11_ b_m_10_] _76_ d_lut_NOR2X1
ANAND3X1_7 [_74_ _75_ _76_] _77_ d_lut_NAND3X1
ANOR2X1_19 [_73_ _77_] _78_ d_lut_NOR2X1
ANAND3X1_8 [_60_ _69_ _78_] _79_ d_lut_NAND3X1
AOAI21X1_22 [_79_ _51_ state_12_bF$buf3] _80_ d_lut_OAI21X1
ANOR2X1_20 [a_e_5_ a_e_4_] _81_ d_lut_NOR2X1
AINVX1_39 [_81_] _82_ d_lut_INVX1
AINVX1_40 [a_e_6_] _83_ d_lut_INVX1
ANAND2X1_3 [a_e_7_ _83_] _84_ d_lut_NAND2X1
ANOR2X1_21 [_84_ _82_] _85_ d_lut_NOR2X1
AINVX2_3 [_85_] _86_ d_lut_INVX2
AINVX1_41 [a_e_1_] _87_ d_lut_INVX1
ANOR2X1_22 [a_e_3_ a_e_2_] _88_ d_lut_NOR2X1
ANAND3X1_9 [_87_ a_e_0_ _88_] _89_ d_lut_NAND3X1
ANOR2X1_23 [_89_ _86_] _90_ d_lut_NOR2X1
ANAND3X1_10 [a_e_9_ a_e_8_ _90_] _91_ d_lut_NAND3X1
ANOR2X1_24 [a_m_4_ a_m_5_] _92_ d_lut_NOR2X1
ANAND3X1_11 [_1980_ _1982_ _92_] _93_ d_lut_NAND3X1
AINVX1_42 [a_m_2_] _94_ d_lut_INVX1
ANAND2X1_4 [_94_ _1968_] _95_ d_lut_NAND2X1
ANAND2X1_5 [_1970_ _32_] _96_ d_lut_NAND2X1
AOR2X2_1 [_95_ _96_] _97_ d_lut_OR2X2
ANOR2X1_25 [_93_ _97_] _98_ d_lut_NOR2X1
ANOR2X1_26 [a_m_12_ a_m_13_] _99_ d_lut_NOR2X1
ANAND3X1_12 [_1996_ _1998_ _99_] _100_ d_lut_NAND3X1
ANOR2X1_27 [a_m_8_ a_m_9_] _101_ d_lut_NOR2X1
ANAND3X1_13 [_1988_ _1990_ _101_] _102_ d_lut_NAND3X1
ANOR2X1_28 [_100_ _102_] _103_ d_lut_NOR2X1
ANOR2X1_29 [a_m_16_ a_m_17_] _104_ d_lut_NOR2X1
ANAND3X1_14 [_24_ _26_ _104_] _105_ d_lut_NAND3X1
ANOR2X1_30 [a_m_1_ a_m_0_] _106_ d_lut_NOR2X1
ANAND3X1_15 [_28_ _30_ _106_] _107_ d_lut_NAND3X1
ANOR2X1_31 [_107_ _105_] _108_ d_lut_NOR2X1
ANAND3X1_16 [_103_ _108_ _98_] _109_ d_lut_NAND3X1
AINVX1_43 [a_e_9_] _110_ d_lut_INVX1
AINVX1_44 [a_e_8_] _111_ d_lut_INVX1
ANOR2X1_32 [a_e_1_ a_e_0_] _112_ d_lut_NOR2X1
AAND2X2_2 [_88_ _112_] _113_ d_lut_AND2X2
ANAND3X1_17 [_110_ _111_ _113_] _114_ d_lut_NAND3X1
AINVX1_45 [b_e_1_] _115_ d_lut_INVX1
AINVX1_46 [b_e_0_] _116_ d_lut_INVX1
ANAND3X1_18 [_115_ _116_ _45_] _117_ d_lut_NAND3X1
AINVX1_47 [_117_] _118_ d_lut_INVX1
ANOR2X1_33 [b_e_9_ b_e_8_] _119_ d_lut_NOR2X1
ANAND3X1_19 [_119_ _118_ _43_] _120_ d_lut_NAND3X1
AOAI21X1_23 [_114_ _86_ _120_] _121_ d_lut_OAI21X1
AINVX2_4 [_121_] _122_ d_lut_INVX2
AOAI21X1_24 [_109_ _91_ _122_] _123_ d_lut_OAI21X1
ANOR2X1_34 [_80_ _123_] _124_ d_lut_NOR2X1
AOAI21X1_25 [_38__bF$buf4 _124__bF$buf3 z_0_] _125_ d_lut_OAI21X1
AOAI21X1_26 [_36__bF$buf4 _37_ _125_] _20__0_ d_lut_OAI21X1
ANAND2X1_6 [state_11_bF$buf2 z_m_1_] _126_ d_lut_NAND2X1
AOAI21X1_27 [_38__bF$buf3 _124__bF$buf2 z_1_] _127_ d_lut_OAI21X1
AOAI21X1_28 [_36__bF$buf3 _126_ _127_] _20__1_ d_lut_OAI21X1
ANAND2X1_7 [state_11_bF$buf1 z_m_2_] _128_ d_lut_NAND2X1
AOAI21X1_29 [_38__bF$buf2 _124__bF$buf1 z_2_] _129_ d_lut_OAI21X1
AOAI21X1_30 [_36__bF$buf2 _128_ _129_] _20__2_ d_lut_OAI21X1
ANAND2X1_8 [state_11_bF$buf0 z_m_3_] _130_ d_lut_NAND2X1
AOAI21X1_31 [_38__bF$buf1 _124__bF$buf0 z_3_] _131_ d_lut_OAI21X1
AOAI21X1_32 [_36__bF$buf1 _130_ _131_] _20__3_ d_lut_OAI21X1
ANAND2X1_9 [state_11_bF$buf4 z_m_4_] _132_ d_lut_NAND2X1
AOAI21X1_33 [_38__bF$buf0 _124__bF$buf3 z_4_] _133_ d_lut_OAI21X1
AOAI21X1_34 [_36__bF$buf0 _132_ _133_] _20__4_ d_lut_OAI21X1
ANAND2X1_10 [state_11_bF$buf3 z_m_5_] _134_ d_lut_NAND2X1
AOAI21X1_35 [_38__bF$buf4 _124__bF$buf2 z_5_] _135_ d_lut_OAI21X1
AOAI21X1_36 [_36__bF$buf4 _134_ _135_] _20__5_ d_lut_OAI21X1
ANAND2X1_11 [state_11_bF$buf2 z_m_6_] _136_ d_lut_NAND2X1
AOAI21X1_37 [_38__bF$buf3 _124__bF$buf1 z_6_] _137_ d_lut_OAI21X1
AOAI21X1_38 [_36__bF$buf3 _136_ _137_] _20__6_ d_lut_OAI21X1
ANAND2X1_12 [state_11_bF$buf1 z_m_7_] _138_ d_lut_NAND2X1
AOAI21X1_39 [_38__bF$buf2 _124__bF$buf0 z_7_] _139_ d_lut_OAI21X1
AOAI21X1_40 [_36__bF$buf2 _138_ _139_] _20__7_ d_lut_OAI21X1
ANAND2X1_13 [state_11_bF$buf0 z_m_8_] _140_ d_lut_NAND2X1
AOAI21X1_41 [_38__bF$buf1 _124__bF$buf3 z_8_] _141_ d_lut_OAI21X1
AOAI21X1_42 [_36__bF$buf1 _140_ _141_] _20__8_ d_lut_OAI21X1
ANAND2X1_14 [state_11_bF$buf4 z_m_9_] _142_ d_lut_NAND2X1
AOAI21X1_43 [_38__bF$buf0 _124__bF$buf2 z_9_] _143_ d_lut_OAI21X1
AOAI21X1_44 [_36__bF$buf0 _142_ _143_] _20__9_ d_lut_OAI21X1
ANAND2X1_15 [state_11_bF$buf3 z_m_10_] _144_ d_lut_NAND2X1
AOAI21X1_45 [_38__bF$buf4 _124__bF$buf1 z_10_] _145_ d_lut_OAI21X1
AOAI21X1_46 [_36__bF$buf4 _144_ _145_] _20__10_ d_lut_OAI21X1
ANAND2X1_16 [state_11_bF$buf2 z_m_11_] _146_ d_lut_NAND2X1
AOAI21X1_47 [_38__bF$buf3 _124__bF$buf0 z_11_] _147_ d_lut_OAI21X1
AOAI21X1_48 [_36__bF$buf3 _146_ _147_] _20__11_ d_lut_OAI21X1
ANAND2X1_17 [state_11_bF$buf1 z_m_12_] _148_ d_lut_NAND2X1
AOAI21X1_49 [_38__bF$buf2 _124__bF$buf3 z_12_] _149_ d_lut_OAI21X1
AOAI21X1_50 [_36__bF$buf2 _148_ _149_] _20__12_ d_lut_OAI21X1
ANAND2X1_18 [state_11_bF$buf0 z_m_13_] _150_ d_lut_NAND2X1
AOAI21X1_51 [_38__bF$buf1 _124__bF$buf2 z_13_] _151_ d_lut_OAI21X1
AOAI21X1_52 [_36__bF$buf1 _150_ _151_] _20__13_ d_lut_OAI21X1
ANAND2X1_19 [state_11_bF$buf4 z_m_14_] _152_ d_lut_NAND2X1
AOAI21X1_53 [_38__bF$buf0 _124__bF$buf1 z_14_] _153_ d_lut_OAI21X1
AOAI21X1_54 [_36__bF$buf0 _152_ _153_] _20__14_ d_lut_OAI21X1
ANAND2X1_20 [state_11_bF$buf3 z_m_15_] _154_ d_lut_NAND2X1
AOAI21X1_55 [_38__bF$buf4 _124__bF$buf0 z_15_] _155_ d_lut_OAI21X1
AOAI21X1_56 [_36__bF$buf4 _154_ _155_] _20__15_ d_lut_OAI21X1
ANAND2X1_21 [state_11_bF$buf2 z_m_16_] _156_ d_lut_NAND2X1
AOAI21X1_57 [_38__bF$buf3 _124__bF$buf3 z_16_] _157_ d_lut_OAI21X1
AOAI21X1_58 [_36__bF$buf3 _156_ _157_] _20__16_ d_lut_OAI21X1
ANAND2X1_22 [state_11_bF$buf1 z_m_17_] _158_ d_lut_NAND2X1
AOAI21X1_59 [_38__bF$buf2 _124__bF$buf2 z_17_] _159_ d_lut_OAI21X1
AOAI21X1_60 [_36__bF$buf2 _158_ _159_] _20__17_ d_lut_OAI21X1
ANAND2X1_23 [state_11_bF$buf0 z_m_18_] _160_ d_lut_NAND2X1
AOAI21X1_61 [_38__bF$buf1 _124__bF$buf1 z_18_] _161_ d_lut_OAI21X1
AOAI21X1_62 [_36__bF$buf1 _160_ _161_] _20__18_ d_lut_OAI21X1
ANAND2X1_24 [state_11_bF$buf4 z_m_19_] _162_ d_lut_NAND2X1
AOAI21X1_63 [_38__bF$buf0 _124__bF$buf0 z_19_] _163_ d_lut_OAI21X1
AOAI21X1_64 [_36__bF$buf0 _162_ _163_] _20__19_ d_lut_OAI21X1
ANAND2X1_25 [state_11_bF$buf3 z_m_20_] _164_ d_lut_NAND2X1
AOAI21X1_65 [_38__bF$buf4 _124__bF$buf3 z_20_] _165_ d_lut_OAI21X1
AOAI21X1_66 [_36__bF$buf4 _164_ _165_] _20__20_ d_lut_OAI21X1
ANAND2X1_26 [state_11_bF$buf2 z_m_21_] _166_ d_lut_NAND2X1
AOAI21X1_67 [_38__bF$buf3 _124__bF$buf2 z_21_] _167_ d_lut_OAI21X1
AOAI21X1_68 [_36__bF$buf3 _166_ _167_] _20__21_ d_lut_OAI21X1
AINVX2_5 [count_0_] _168_ d_lut_INVX2
ANOR2X1_35 [count_1_ _168_] _169_ d_lut_NOR2X1
AINVX1_48 [_169_] _170_ d_lut_INVX1
ANOR2X1_36 [count_2_ count_3_] _171_ d_lut_NOR2X1
ANAND3X1_20 [count_4_ count_5_ _171_] _172_ d_lut_NAND3X1
ANOR2X1_37 [_172_ _170_] _173_ d_lut_NOR2X1
AOAI21X1_69 [_168_ _173_ state_1_bF$buf6] _174_ d_lut_OAI21X1
ANOR2X1_38 [state_1_bF$buf5 state_6_bF$buf7] _175_ d_lut_NOR2X1
AINVX1_49 [_175_] _176_ d_lut_INVX1
AOAI21X1_70 [_168_ _176_ _174_] _8__0_ d_lut_OAI21X1
AINVX1_50 [count_1_] _177_ d_lut_INVX1
ANOR2X1_39 [_168_ _177_] _178_ d_lut_NOR2X1
AOAI21X1_71 [_172_ _170_ state_1_bF$buf4] _179_ d_lut_OAI21X1
ANOR2X1_40 [_178_ _179_] _180_ d_lut_NOR2X1
AAOI21X1_1 [count_1_ _175_ _180_] _181_ d_lut_AOI21X1
AAOI21X1_2 [_168_ _177_ _181_] _8__1_ d_lut_AOI21X1
AINVX8_2 [state_6_bF$buf6] _182_ d_lut_INVX8
AOAI21X1_72 [state_1_bF$buf3 _182__bF$buf6 count_2_] _183_ d_lut_OAI21X1
ANAND2X1_27 [state_1_bF$buf2 _178_] _184_ d_lut_NAND2X1
AINVX1_51 [count_2_] _185_ d_lut_INVX1
ANOR2X1_41 [_185_ _184_] _186_ d_lut_NOR2X1
AAOI21X1_3 [_183_ _184_ _186_] _8__2_ d_lut_AOI21X1
AOAI21X1_73 [state_1_bF$buf1 _182__bF$buf5 count_3_] _187_ d_lut_OAI21X1
AMUX2X1_1 [count_3_ _187_ _186_] _8__3_ d_lut_MUX2X1
ANAND2X1_28 [count_3_ _186_] _188_ d_lut_NAND2X1
AOAI21X1_74 [state_1_bF$buf0 _182__bF$buf4 count_4_] _189_ d_lut_OAI21X1
AINVX1_52 [count_4_] _190_ d_lut_INVX1
ANOR2X1_42 [_190_ _188_] _191_ d_lut_NOR2X1
AAOI21X1_4 [_188_ _189_ _191_] _8__4_ d_lut_AOI21X1
AOAI21X1_75 [state_1_bF$buf6 _182__bF$buf3 count_5_] _192_ d_lut_OAI21X1
AMUX2X1_2 [count_5_ _192_ _191_] _8__5_ d_lut_MUX2X1
AINVX8_3 [state_4_bF$buf6] _193_ d_lut_INVX8
ANOR2X1_43 [rst _193_] _1953_ d_lut_NOR2X1
AINVX8_4 [state_3_bF$buf4] _194_ d_lut_INVX8
ANOR2X1_44 [rst _194__bF$buf3] _1954_ d_lut_NOR2X1
AINVX2_6 [b_m_23_] _195_ d_lut_INVX2
AINVX4_1 [state_10_] _196_ d_lut_INVX4
ANOR2X1_45 [_195_ _196_] _197_ d_lut_NOR2X1
AINVX1_53 [_197_] _198_ d_lut_INVX1
ANOR2X1_46 [rst _198_] _1955_ d_lut_NOR2X1
AINVX8_5 [state_14_bF$buf7] _199_ d_lut_INVX8
ANOR2X1_47 [rst _199__bF$buf6] _1956_ d_lut_NOR2X1
AINVX1_54 [state_1_bF$buf5] _200_ d_lut_INVX1
ANOR2X1_48 [rst _200_] _201_ d_lut_NOR2X1
AAND2X2_3 [_173_ _201_] _1957_ d_lut_AND2X2
ANAND3X1_21 [state_8_ input_b_stb _2005_] _202_ d_lut_NAND3X1
ANOR2X1_49 [rst _202__bF$buf7] _1958_ d_lut_NOR2X1
AINVX1_55 [rst] _203_ d_lut_INVX1
AINVX2_7 [z_e_8_] _204_ d_lut_INVX2
AINVX1_56 [z_e_0_] _205_ d_lut_INVX1
AINVX1_57 [z_e_1_] _206_ d_lut_INVX1
ANOR2X1_50 [_205_ _206_] _207_ d_lut_NOR2X1
AINVX1_58 [z_e_5_] _208_ d_lut_INVX1
AINVX1_59 [z_e_4_] _209_ d_lut_INVX1
ANAND2X1_29 [_208_ _209_] _210_ d_lut_NAND2X1
AINVX2_8 [z_e_6_] _211_ d_lut_INVX2
ANAND2X1_30 [z_e_7_ _211_] _212_ d_lut_NAND2X1
ANOR2X1_51 [_212_ _210_] _213_ d_lut_NOR2X1
ANOR2X1_52 [z_e_3_ z_e_2_] _214_ d_lut_NOR2X1
ANAND2X1_31 [_214_ _213_] _215_ d_lut_NAND2X1
AOAI21X1_76 [_207_ _215_ z_e_7_] _216_ d_lut_OAI21X1
AOAI21X1_77 [_204_ _216_ z_e_9_] _217_ d_lut_OAI21X1
AINVX2_9 [_217_] _218_ d_lut_INVX2
ANAND2X1_32 [z_e_1_ _205_] _219_ d_lut_NAND2X1
ANOR2X1_53 [_204_ _219_] _220_ d_lut_NOR2X1
ANAND3X1_22 [_214_ _220_ _213_] _221_ d_lut_NAND3X1
ANAND2X1_33 [_221_ _218_] _222_ d_lut_NAND2X1
ANAND2X1_34 [state_13_ _222_] _223_ d_lut_NAND2X1
AINVX1_60 [_223_] _224_ d_lut_INVX1
ANAND2X1_35 [_203_ _224_] _225_ d_lut_NAND2X1
AINVX1_61 [_225_] _1959_ d_lut_INVX1
AINVX1_62 [state_0_] _226_ d_lut_INVX1
AAND2X2_4 [input_a_stb _2004_] _227_ d_lut_AND2X2
AINVX8_6 [state_7_bF$buf6] _228_ d_lut_INVX8
ANAND2X1_36 [output_z_ack _2007_] _229_ d_lut_NAND2X1
AOAI21X1_78 [_228__bF$buf3 _229_ _203_] _230_ d_lut_OAI21X1
AINVX1_63 [_230_] _231_ d_lut_INVX1
AOAI21X1_79 [_226_ _227_ _231_] _1960_ d_lut_OAI21X1
AAOI21X1_5 [_179_ _182__bF$buf2 rst] _1961_ d_lut_AOI21X1
AOAI21X1_80 [z_m_23_ _218_ state_5_] _232_ d_lut_OAI21X1
AINVX2_10 [state_13_] _233_ d_lut_INVX2
ANOR2X1_54 [_233_ _222_] _234_ d_lut_NOR2X1
AINVX4_2 [_234__bF$buf4] _235_ d_lut_INVX4
AAOI21X1_6 [_235_ _232_ rst] _1962_ d_lut_AOI21X1
AINVX1_64 [_1972_] _236_ d_lut_INVX1
ANOR2X1_55 [b_m_23_ _196_] _237_ d_lut_NOR2X1
AINVX1_65 [_237__bF$buf3] _238_ d_lut_INVX1
AAOI21X1_7 [_236_ _238_ rst] _1963_ d_lut_AOI21X1
AINVX8_7 [state_9_] _239_ d_lut_INVX8
AINVX1_66 [state_5_] _240_ d_lut_INVX1
ANOR2X1_56 [z_m_23_ _218_] _241_ d_lut_NOR2X1
AINVX1_67 [_241_] _242_ d_lut_INVX1
ANOR2X1_57 [_240_ _242_] _243_ d_lut_NOR2X1
AINVX8_8 [_243__bF$buf3] _244_ d_lut_INVX8
AAOI21X1_8 [_244_ _239__bF$buf3 rst] _1964_ d_lut_AOI21X1
ANAND2X1_37 [state_0_ _227_] _245_ d_lut_NAND2X1
ANAND2X1_38 [input_b_stb _2005_] _246_ d_lut_NAND2X1
ANAND2X1_39 [state_8_ _246_] _247_ d_lut_NAND2X1
AAOI21X1_9 [_245__bF$buf7 _247_ rst] _1965_ d_lut_AOI21X1
AINVX1_68 [_1974__bF$buf3] _248_ d_lut_INVX1
AINVX1_69 [_124__bF$buf1] _249_ d_lut_INVX1
AAOI21X1_10 [_249_ _248_ rst] _1966_ d_lut_AOI21X1
ANOR2X1_58 [_79_ _51_] _250_ d_lut_NOR2X1
AOAI21X1_81 [_250_ _123_ state_12_bF$buf2] _251_ d_lut_OAI21X1
AAOI21X1_11 [_229_ state_7_bF$buf5 state_11_bF$buf1] _252_ d_lut_AOI21X1
AAOI21X1_12 [_251_ _252_ rst] _1967_ d_lut_AOI21X1
AINVX2_11 [divisor_0_] _253_ d_lut_INVX2