*SPICE netlist created from BLIF module cpu by blif2BSpice
.include /usr/share/qflow/tech/osu035/osu035_stdcells.sp
.subckt cpu vdd gnd clk reset DI_0_ DI_1_ DI_2_ DI_3_ DI_4_ DI_5_ DI_6_ DI_7_ IRQ NMI RDY AB_0_ AB_1_ AB_2_ AB_3_ AB_4_ AB_5_ AB_6_ AB_7_ AB_8_ AB_9_ AB_10_ AB_11_ AB_12_ AB_13_ AB_14_ AB_15_ DO_0_ DO_1_ DO_2_ DO_3_ DO_4_ DO_5_ DO_6_ DO_7_ WE 
XBUFX4_1 vdd gnd _925_ _925__bF$buf5 BUFX4
XBUFX4_2 vdd gnd _925_ _925__bF$buf4 BUFX4
XBUFX4_3 vdd gnd _925_ _925__bF$buf3 BUFX4
XBUFX4_4 vdd gnd _925_ _925__bF$buf2 BUFX4
XBUFX4_5 vdd gnd _925_ _925__bF$buf1 BUFX4
XBUFX4_6 vdd gnd _925_ _925__bF$buf0 BUFX4
XBUFX4_7 vdd gnd _980_ _980__bF$buf4 BUFX4
XBUFX4_8 vdd gnd _980_ _980__bF$buf3 BUFX4
XBUFX4_9 vdd gnd _980_ _980__bF$buf2 BUFX4
XBUFX4_10 vdd gnd _980_ _980__bF$buf1 BUFX4
XBUFX4_11 vdd gnd _980_ _980__bF$buf0 BUFX4
XBUFX4_12 vdd gnd _1100_ _1100__bF$buf3 BUFX4
XBUFX4_13 vdd gnd _1100_ _1100__bF$buf2 BUFX4
XBUFX4_14 vdd gnd _1100_ _1100__bF$buf1 BUFX4
XBUFX4_15 vdd gnd _1100_ _1100__bF$buf0 BUFX4
XBUFX4_16 vdd gnd clk clk_bF$buf11 BUFX4
XBUFX4_17 vdd gnd clk clk_bF$buf10 BUFX4
XBUFX4_18 vdd gnd clk clk_bF$buf9 BUFX4
XBUFX4_19 vdd gnd clk clk_bF$buf8 BUFX4
XBUFX4_20 vdd gnd clk clk_bF$buf7 BUFX4
XBUFX4_21 vdd gnd clk clk_bF$buf6 BUFX4
XBUFX4_22 vdd gnd clk clk_bF$buf5 BUFX4
XBUFX4_23 vdd gnd clk clk_bF$buf4 BUFX4
XBUFX4_24 vdd gnd clk clk_bF$buf3 BUFX4
XBUFX4_25 vdd gnd clk clk_bF$buf2 BUFX4
XBUFX4_26 vdd gnd clk clk_bF$buf1 BUFX4
XBUFX4_27 vdd gnd clk clk_bF$buf0 BUFX4
XBUFX4_28 vdd gnd _929_ _929__bF$buf4 BUFX4
XBUFX4_29 vdd gnd _929_ _929__bF$buf3 BUFX4
XBUFX4_30 vdd gnd _929_ _929__bF$buf2 BUFX4
XBUFX4_31 vdd gnd _929_ _929__bF$buf1 BUFX4
XBUFX4_32 vdd gnd _929_ _929__bF$buf0 BUFX4
XBUFX4_33 vdd gnd _924_ _924__bF$buf7 BUFX4
XBUFX4_34 vdd gnd _924_ _924__bF$buf6 BUFX4
XBUFX4_35 vdd gnd _924_ _924__bF$buf5 BUFX4
XBUFX4_36 vdd gnd _924_ _924__bF$buf4 BUFX4
XBUFX4_37 vdd gnd _924_ _924__bF$buf3 BUFX4
XBUFX4_38 vdd gnd _924_ _924__bF$buf2 BUFX4
XBUFX4_39 vdd gnd _924_ _924__bF$buf1 BUFX4
XBUFX4_40 vdd gnd _924_ _924__bF$buf0 BUFX4
XBUFX2_1 vdd gnd _1789_ _1789__bF$buf3 BUFX2
XBUFX4_41 vdd gnd _1789_ _1789__bF$buf2 BUFX4
XBUFX4_42 vdd gnd _1789_ _1789__bF$buf1 BUFX4
XBUFX4_43 vdd gnd _1789_ _1789__bF$buf0 BUFX4
XBUFX4_44 vdd gnd _928_ _928__bF$buf4 BUFX4
XBUFX4_45 vdd gnd _928_ _928__bF$buf3 BUFX4
XBUFX4_46 vdd gnd _928_ _928__bF$buf2 BUFX4
XBUFX4_47 vdd gnd _928_ _928__bF$buf1 BUFX4
XBUFX4_48 vdd gnd _928_ _928__bF$buf0 BUFX4
XBUFX4_49 vdd gnd _953_ _953__bF$buf4 BUFX4
XBUFX4_50 vdd gnd _953_ _953__bF$buf3 BUFX4
XBUFX4_51 vdd gnd _953_ _953__bF$buf2 BUFX4
XBUFX4_52 vdd gnd _953_ _953__bF$buf1 BUFX4
XBUFX4_53 vdd gnd _953_ _953__bF$buf0 BUFX4
XBUFX4_54 vdd gnd _578_ _578__bF$buf4 BUFX4
XBUFX4_55 vdd gnd _578_ _578__bF$buf3 BUFX4
XBUFX4_56 vdd gnd _578_ _578__bF$buf2 BUFX4
XBUFX4_57 vdd gnd _578_ _578__bF$buf1 BUFX4
XBUFX4_58 vdd gnd _578_ _578__bF$buf0 BUFX4
XBUFX4_59 vdd gnd RDY RDY_bF$buf8 BUFX4
XBUFX4_60 vdd gnd RDY RDY_bF$buf7 BUFX4
XBUFX4_61 vdd gnd RDY RDY_bF$buf6 BUFX4
XBUFX4_62 vdd gnd RDY RDY_bF$buf5 BUFX4
XBUFX4_63 vdd gnd RDY RDY_bF$buf4 BUFX4
XBUFX4_64 vdd gnd RDY RDY_bF$buf3 BUFX4
XBUFX4_65 vdd gnd RDY RDY_bF$buf2 BUFX4
XBUFX4_66 vdd gnd RDY RDY_bF$buf1 BUFX4
XBUFX4_67 vdd gnd RDY RDY_bF$buf0 BUFX4
XBUFX2_2 vdd gnd _939_ _939__bF$buf3 BUFX2
XBUFX2_3 vdd gnd _939_ _939__bF$buf2 BUFX2
XBUFX2_4 vdd gnd _939_ _939__bF$buf1 BUFX2
XBUFX2_5 vdd gnd _939_ _939__bF$buf0 BUFX2
XBUFX4_68 vdd gnd _1077_ _1077__bF$buf3 BUFX4
XBUFX4_69 vdd gnd _1077_ _1077__bF$buf2 BUFX4
XBUFX2_6 vdd gnd _1077_ _1077__bF$buf1 BUFX2
XBUFX2_7 vdd gnd _1077_ _1077__bF$buf0 BUFX2
XBUFX4_70 vdd gnd _1065_ _1065__bF$buf3 BUFX4
XBUFX4_71 vdd gnd _1065_ _1065__bF$buf2 BUFX4
XBUFX4_72 vdd gnd _1065_ _1065__bF$buf1 BUFX4
XBUFX4_73 vdd gnd _1065_ _1065__bF$buf0 BUFX4
XBUFX4_74 vdd gnd _1005_ _1005__bF$buf4 BUFX4
XBUFX4_75 vdd gnd _1005_ _1005__bF$buf3 BUFX4
XBUFX4_76 vdd gnd _1005_ _1005__bF$buf2 BUFX4
XBUFX4_77 vdd gnd _1005_ _1005__bF$buf1 BUFX4
XBUFX4_78 vdd gnd _1005_ _1005__bF$buf0 BUFX4
XBUFX4_79 vdd gnd _1000_ _1000__bF$buf4 BUFX4
XBUFX4_80 vdd gnd _1000_ _1000__bF$buf3 BUFX4
XBUFX4_81 vdd gnd _1000_ _1000__bF$buf2 BUFX4
XBUFX4_82 vdd gnd _1000_ _1000__bF$buf1 BUFX4
XBUFX4_83 vdd gnd _1000_ _1000__bF$buf0 BUFX4
XBUFX4_84 vdd gnd _1509_ _1509__bF$buf4 BUFX4
XBUFX4_85 vdd gnd _1509_ _1509__bF$buf3 BUFX4
XBUFX4_86 vdd gnd _1509_ _1509__bF$buf2 BUFX4
XBUFX4_87 vdd gnd _1509_ _1509__bF$buf1 BUFX4
XBUFX4_88 vdd gnd _1509_ _1509__bF$buf0 BUFX4
XBUFX4_89 vdd gnd _979_ _979__bF$buf3 BUFX4
XBUFX4_90 vdd gnd _979_ _979__bF$buf2 BUFX4
XBUFX2_8 vdd gnd _979_ _979__bF$buf1 BUFX2
XBUFX4_91 vdd gnd _979_ _979__bF$buf0 BUFX4
XINVX8_1 vdd gnd RDY_bF$buf8 _924_ INVX8
XNOR2X1_1 vdd state_4_ gnd _925_ state_5_ NOR2X1
XNOR2X1_2 vdd state_1_ gnd _926_ state_0_ NOR2X1
XAND2X2_1 vdd gnd state_2_ state_3_ _927_ AND2X2
XNAND3X1_1 _926_ vdd gnd _925__bF$buf5 _927_ _928_ NAND3X1
XNOR2X1_3 vdd _928__bF$buf4 gnd _929_ _924__bF$buf7 NOR2X1
XINVX4_1 vdd gnd _930_ IRHOLD_valid INVX4
XINVX1_1 DIHOLD_4_ _932_ vdd gnd INVX1
XNAND2X1_1 vdd _933_ gnd RDY_bF$buf7 DI_4_ NAND2X1
XOAI21X1_1 gnd vdd RDY_bF$buf6 _932_ DIMUX_4_ _933_ OAI21X1
XINVX4_2 vdd gnd _934_ DIMUX_4_ INVX4
XINVX1_2 I _935_ vdd gnd INVX1
XINVX1_3 IRQ _936_ vdd gnd INVX1
XINVX2_1 vdd gnd _937_ NMI_edge INVX2
XNAND2X1_2 vdd _938_ gnd _936_ _937_ NAND2X1
XOAI21X1_2 gnd vdd _935_ NMI_edge _939_ _938_ OAI21X1
XOAI21X1_3 gnd vdd _930_ IRHOLD_4_ _940_ _939__bF$buf3 OAI21X1
XAOI21X1_1 gnd vdd _930_ _934_ _941_ _940_ AOI21X1
XINVX1_4 IRHOLD_3_ _942_ vdd gnd INVX1
XINVX1_5 DIHOLD_3_ _943_ vdd gnd INVX1
XNAND2X1_3 vdd _944_ gnd RDY_bF$buf5 DI_3_ NAND2X1
XOAI21X1_4 gnd vdd RDY_bF$buf4 _943_ DIMUX_3_ _944_ OAI21X1
XNAND2X1_4 vdd _945_ gnd _930_ DIMUX_3_ NAND2X1
XOAI21X1_5 gnd vdd _930_ _942_ _946_ _945_ OAI21X1
XNAND2X1_5 vdd _947_ gnd _939__bF$buf2 _946_ NAND2X1
XMUX2X1_1 RDY_bF$buf3 vdd gnd _948_ DI_2_ DIHOLD_2_ MUX2X1
XNAND2X1_6 vdd _949_ gnd IRHOLD_valid IRHOLD_2_ NAND2X1
XOAI21X1_6 gnd vdd IRHOLD_valid _948_ _950_ _949_ OAI21X1
XAND2X2_2 vdd gnd _950_ _939__bF$buf1 _951_ AND2X2
XNOR2X1_4 vdd _947_ gnd _952_ _951_ NOR2X1
XOAI21X1_7 gnd vdd I _936_ _953_ _937_ OAI21X1
XINVX1_6 DIHOLD_1_ _954_ vdd gnd INVX1
XNAND2X1_7 vdd _955_ gnd RDY_bF$buf2 DI_1_ NAND2X1
XOAI21X1_8 gnd vdd RDY_bF$buf1 _954_ DIMUX_1_ _955_ OAI21X1
XMUX2X1_2 _930_ vdd gnd _956_ DIMUX_1_ IRHOLD_1_ MUX2X1
XOR2X2_1 _957_ _953__bF$buf4 vdd gnd _956_ OR2X2
XINVX1_7 DIHOLD_0_ _958_ vdd gnd INVX1
XNAND2X1_8 vdd _959_ gnd RDY_bF$buf0 DI_0_ NAND2X1
XOAI21X1_9 gnd vdd RDY_bF$buf8 _958_ DIMUX_0_ _959_ OAI21X1
XMUX2X1_3 _930_ vdd gnd _960_ DIMUX_0_ IRHOLD_0_ MUX2X1
XNOR2X1_5 vdd _960_ gnd _961_ _953__bF$buf3 NOR2X1
XAND2X2_3 vdd gnd _957_ _961_ _962_ AND2X2
XNAND2X1_9 vdd _963_ gnd _952_ _962_ NAND2X1
XOAI21X1_10 gnd vdd _950_ _946_ _964_ _939__bF$buf0 OAI21X1
XINVX1_8 IRHOLD_4_ _965_ vdd gnd INVX1
XAOI21X1_2 gnd vdd IRHOLD_valid _965_ _966_ _953__bF$buf2 AOI21X1
XOAI21X1_11 gnd vdd IRHOLD_valid DIMUX_4_ _967_ _966_ OAI21X1
XMUX2X1_4 RDY_bF$buf7 vdd gnd _968_ DI_7_ DIHOLD_7_ MUX2X1
XNAND2X1_10 vdd _969_ gnd IRHOLD_valid IRHOLD_7_ NAND2X1
XOAI21X1_12 gnd vdd IRHOLD_valid _968_ _970_ _969_ OAI21X1
XAND2X2_4 vdd gnd _970_ _939__bF$buf3 _971_ AND2X2
XNAND2X1_11 vdd _972_ gnd _967_ _971_ NAND2X1
XNOR2X1_6 vdd _972_ gnd _973_ _961_ NOR2X1
XNAND2X1_12 vdd _974_ gnd _964_ _973_ NAND2X1
XOAI21X1_13 gnd vdd _941_ _963_ _975_ _974_ OAI21X1
XINVX2_2 vdd gnd _976_ state_0_ INVX2
XNOR2X1_7 vdd _976_ gnd _977_ state_1_ NOR2X1
XNOR2X1_8 vdd state_3_ gnd _978_ state_2_ NOR2X1
XNAND2X1_13 vdd _979_ gnd _978_ _977_ NAND2X1
XINVX8_2 vdd gnd _925__bF$buf4 _980_ INVX8
XINVX1_9 state_3_ _981_ vdd gnd INVX1
XNAND2X1_14 vdd _982_ gnd state_2_ _981_ NAND2X1
XOR2X2_2 _983_ state_1_ vdd gnd state_0_ OR2X2
XNOR2X1_9 vdd _982_ gnd _984_ _983_ NOR2X1
XNAND2X1_15 vdd _985_ gnd _925__bF$buf3 _984_ NAND2X1
XOAI21X1_14 gnd vdd _979__bF$buf3 _980__bF$buf4 _986_ _985_ OAI21X1
XAND2X2_5 vdd gnd state_5_ state_4_ _987_ AND2X2
XINVX2_3 vdd gnd _988_ _987_ INVX2
XINVX1_10 state_5_ _989_ vdd gnd INVX1
XNOR2X1_10 vdd _989_ gnd _990_ state_4_ NOR2X1
XNAND2X1_16 vdd _991_ gnd state_2_ state_3_ NAND2X1
XNAND2X1_17 vdd _992_ gnd state_0_ state_1_ NAND2X1
XNOR2X1_11 vdd _992_ gnd _993_ _991_ NOR2X1
XNAND2X1_18 vdd _994_ gnd _990_ _993_ NAND2X1
XOAI21X1_15 gnd vdd _988_ _979__bF$buf2 _995_ _994_ OAI21X1
XNOR2X1_12 vdd _986_ gnd _996_ _995_ NOR2X1
XINVX1_11 _979__bF$buf1 _997_ vdd gnd INVX1
XINVX2_4 vdd gnd _998_ state_4_ INVX2
XNOR2X1_13 vdd _998_ gnd _999_ state_5_ NOR2X1
XNAND2X1_19 vdd _1000_ gnd state_5_ _998_ NAND2X1
XNAND3X1_2 state_1_ vdd gnd _976_ _927_ _1001_ NAND3X1
XNOR2X1_14 vdd _1001_ gnd _1002_ _1000__bF$buf4 NOR2X1
XAOI21X1_3 gnd vdd _997_ _999_ _1003_ _1002_ AOI21X1
XNOR3X1_1 vdd gnd _976_ _991_ state_1_ _1004_ NOR3X1
XNAND2X1_20 vdd _1005_ gnd state_4_ _989_ NAND2X1
XNAND2X1_21 vdd _1006_ gnd _1000__bF$buf3 _1005__bF$buf4 NAND2X1
XINVX2_5 vdd gnd _1007_ state_2_ INVX2
XNOR2X1_15 vdd _1007_ gnd _1008_ state_3_ NOR2X1
XNAND2X1_22 vdd _1009_ gnd _977_ _1008_ NAND2X1
XNOR2X1_16 vdd _1009_ gnd _1010_ _1005__bF$buf3 NOR2X1
XAOI21X1_4 gnd vdd _1004_ _1006_ _1011_ _1010_ AOI21X1
XNAND2X1_23 vdd _1012_ gnd _1003_ _1011_ NAND2X1
XNAND3X1_3 _996_ vdd gnd RDY_bF$buf6 _1012_ _1013_ NAND3X1
XNAND2X1_24 vdd _1014_ gnd _927_ _977_ NAND2X1
XNOR3X1_2 vdd gnd state_1_ _991_ state_0_ _1015_ NOR3X1
XNAND2X1_25 vdd _1016_ gnd RDY_bF$buf5 _1015_ NAND2X1
XOAI21X1_16 gnd vdd RDY_bF$buf4 _1014_ _1017_ _1016_ OAI21X1
XAND2X2_6 vdd gnd _1017_ _990_ _1018_ AND2X2
XNAND2X1_26 vdd _1019_ gnd _999_ _984_ NAND2X1
XNOR2X1_17 vdd _1014_ gnd _1020_ _980__bF$buf3 NOR2X1
XINVX2_6 vdd gnd _1021_ _1020_ INVX2
XNOR2X1_18 vdd store gnd _1022_ ALU.CO NOR2X1
XNAND2X1_27 vdd _1023_ gnd RDY_bF$buf3 _1022_ NAND2X1
XOAI22X1_1 gnd vdd _1021_ RDY_bF$buf2 _1019_ _1023_ _1024_ OAI22X1
XAND2X2_7 vdd gnd state_0_ state_1_ _1025_ AND2X2
XNAND2X1_28 vdd _1026_ gnd _978_ _1025_ NAND2X1
XINVX1_12 _1026_ _1027_ vdd gnd INVX1
XNAND2X1_29 vdd _1028_ gnd _925__bF$buf2 _1027_ NAND2X1
XINVX2_7 vdd gnd _1029_ write_back INVX2
XNAND3X1_4 RDY_bF$buf1 vdd gnd _1029_ _1022_ _1030_ NAND3X1
XNOR2X1_19 vdd _1028_ gnd _1031_ _1030_ NOR2X1
XNOR3X1_3 vdd gnd _1018_ _1024_ _1031_ _1032_ NOR3X1
XOR2X2_3 _1033_ _995_ vdd gnd _986_ OR2X2
XNAND3X1_5 RDY_bF$buf0 vdd gnd _1029_ _1033_ _1034_ NAND3X1
XNAND3X1_6 _1034_ vdd gnd _1013_ _1032_ _1035_ NAND3X1
XAOI21X1_5 gnd vdd _975_ _929__bF$buf4 _1036_ _1035_ AOI21X1
XNOR2X1_20 vdd _956_ gnd _1037_ _953__bF$buf1 NOR2X1
XNOR2X1_21 vdd _961_ gnd _1038_ _1037_ NOR2X1
XNAND2X1_30 vdd _1039_ gnd _964_ _1038_ NAND2X1
XNAND2X1_31 vdd _1040_ gnd _930_ DIMUX_4_ NAND2X1
XOAI21X1_17 gnd vdd _930_ _965_ _1041_ _1040_ OAI21X1
XOAI21X1_18 gnd vdd _970_ _1041_ _1042_ _939__bF$buf2 OAI21X1
XINVX1_13 DIHOLD_5_ _1043_ vdd gnd INVX1
XNAND2X1_32 vdd _1044_ gnd RDY_bF$buf8 DI_5_ NAND2X1
XOAI21X1_19 gnd vdd RDY_bF$buf7 _1043_ DIMUX_5_ _1044_ OAI21X1
XMUX2X1_5 _930_ vdd gnd _1045_ DIMUX_5_ IRHOLD_5_ MUX2X1
XNOR2X1_22 vdd _1045_ gnd _1046_ _953__bF$buf0 NOR2X1
XINVX1_14 DIHOLD_6_ _1047_ vdd gnd INVX1
XNAND2X1_33 vdd _1048_ gnd RDY_bF$buf6 DI_6_ NAND2X1
XOAI21X1_20 gnd vdd RDY_bF$buf5 _1047_ DIMUX_6_ _1048_ OAI21X1
XINVX1_15 IRHOLD_6_ _1049_ vdd gnd INVX1
XAOI21X1_6 gnd vdd IRHOLD_valid _1049_ _1050_ _953__bF$buf4 AOI21X1
XOAI21X1_21 gnd vdd IRHOLD_valid DIMUX_6_ _1051_ _1050_ OAI21X1
XNOR2X1_23 vdd _1046_ gnd _1052_ _1051_ NOR2X1
XNAND2X1_34 vdd _1053_ gnd _1042_ _1052_ NAND2X1
XNOR2X1_24 vdd _1039_ gnd _1054_ _1053_ NOR2X1
XNAND3X1_7 _990_ vdd gnd _977_ _1008_ _1055_ NAND3X1
XINVX1_16 _1055_ _1056_ vdd gnd INVX1
XAOI22X1_1 gnd vdd _929__bF$buf3 _1054_ _1057_ _924__bF$buf6 _1056_ AOI22X1
XNAND2X1_35 vdd _1058_ gnd _924__bF$buf5 _1010_ NAND2X1
XOAI21X1_22 gnd vdd ALU.CO store _1059_ RDY_bF$buf4 OAI21X1
XOAI21X1_23 gnd vdd _1019_ _1059_ _1060_ _1058_ OAI21X1
XINVX1_17 _1060_ _1061_ vdd gnd INVX1
XNAND3X1_8 _1061_ vdd gnd _1057_ _1036_ _1062_ NAND3X1
XINVX1_18 _994_ _1063_ vdd gnd INVX1
XOAI21X1_24 gnd vdd _1041_ _946_ _1064_ _939__bF$buf1 OAI21X1
XINVX8_3 vdd gnd _929__bF$buf2 _1065_ INVX8
XNAND2X1_36 vdd _1066_ gnd _939__bF$buf0 _950_ NAND2X1
XNOR2X1_25 vdd _1065__bF$buf3 gnd _1067_ _1066_ NOR2X1
XAOI22X1_2 gnd vdd _1064_ _1067_ _1068_ _924__bF$buf4 _1063_ AOI22X1
XOAI21X1_25 gnd vdd _980__bF$buf2 _1001_ _1069_ RDY_bF$buf3 OAI21X1
XNAND2X1_37 vdd _1070_ gnd _927_ _1025_ NAND2X1
XNOR2X1_26 vdd _1070_ gnd _1071_ _980__bF$buf1 NOR2X1
XOAI21X1_26 gnd vdd RDY_bF$buf2 _1071_ _1072_ _1069_ OAI21X1
XNAND2X1_38 vdd _1073_ gnd _1072_ _1068_ NAND2X1
XNAND2X1_39 vdd _1074_ gnd _1025_ _1008_ NAND2X1
XNOR2X1_27 vdd _1074_ gnd _1075_ _1005__bF$buf2 NOR2X1
XNAND2X1_40 vdd _1076_ gnd state_1_ _976_ NAND2X1
XNOR2X1_28 vdd _1076_ gnd _1077_ _982_ NOR2X1
XINVX1_19 _1077__bF$buf3 _1078_ vdd gnd INVX1
XOAI21X1_27 gnd vdd _1005__bF$buf1 _1078_ _1079_ RDY_bF$buf1 OAI21X1
XOAI21X1_28 gnd vdd RDY_bF$buf0 _1075_ _1080_ _1079_ OAI21X1
XNOR2X1_29 vdd _1074_ gnd _1081_ _1000__bF$buf2 NOR2X1
XOAI21X1_29 gnd vdd _1000__bF$buf1 _1078_ _1082_ RDY_bF$buf8 OAI21X1
XOAI21X1_30 gnd vdd RDY_bF$buf7 _1081_ _1083_ _1082_ OAI21X1
XNAND2X1_41 vdd _1084_ gnd _1080_ _1083_ NAND2X1
XNOR2X1_30 vdd _1073_ gnd _1085_ _1084_ NOR2X1
XNOR3X1_4 vdd gnd _981_ _992_ state_2_ _1086_ NOR3X1
XNAND2X1_42 vdd _1087_ gnd _990_ _1086_ NAND2X1
XNAND2X1_43 vdd _1088_ gnd state_3_ _1007_ NAND2X1
XNOR2X1_31 vdd _1088_ gnd _1089_ _1076_ NOR2X1
XNAND2X1_44 vdd _1090_ gnd _990_ _1089_ NAND2X1
XINVX1_20 _1090_ _1091_ vdd gnd INVX1
XNAND2X1_45 vdd _1092_ gnd RDY_bF$buf6 _1091_ NAND2X1
XOAI21X1_31 gnd vdd RDY_bF$buf5 _1087_ _1093_ _1092_ OAI21X1
XNAND3X1_9 state_3_ vdd gnd _1007_ _1025_ _1094_ NAND3X1
XNOR2X1_32 vdd _1094_ gnd _1095_ _980__bF$buf0 NOR2X1
XINVX1_21 _1095_ _1096_ vdd gnd INVX1
XINVX1_22 state_1_ _1097_ vdd gnd INVX1
XNOR2X1_33 vdd _1097_ gnd _1098_ state_0_ NOR2X1
XNOR2X1_34 vdd _981_ gnd _1099_ state_2_ NOR2X1
XNAND3X1_10 _1098_ vdd gnd _925__bF$buf1 _1099_ _1100_ NAND3X1
XMUX2X1_6 _924__bF$buf3 vdd gnd _1101_ _1096_ _1100__bF$buf3 MUX2X1
XNOR2X1_35 vdd _1093_ gnd _1102_ _1101_ NOR2X1
XOAI21X1_32 gnd vdd _1005__bF$buf0 _1094_ _1103_ _924__bF$buf2 OAI21X1
XNAND2X1_46 vdd _1104_ gnd _1098_ _1099_ NAND2X1
XNOR2X1_36 vdd _1104_ gnd _1105_ _1005__bF$buf4 NOR2X1
XOAI21X1_33 gnd vdd _924__bF$buf1 _1105_ _1106_ _1103_ OAI21X1
XNAND3X1_11 _1008_ vdd gnd _925__bF$buf0 _1098_ _1107_ NAND3X1
XXOR2X1_1 _1108_ vdd backwards ALU.CO gnd XOR2X1
XINVX1_23 _1108_ _1109_ vdd gnd INVX1
XOAI21X1_34 gnd vdd _1107_ _1109_ _1110_ RDY_bF$buf4 OAI21X1
XNOR2X1_37 vdd _1074_ gnd _1111_ _980__bF$buf4 NOR2X1
XOAI21X1_35 gnd vdd RDY_bF$buf3 _1111_ _1112_ _1110_ OAI21X1
XAND2X2_8 vdd gnd _1112_ _1106_ _1113_ AND2X2
XAND2X2_9 vdd gnd _1102_ _1113_ _1114_ AND2X2
XNOR2X1_38 vdd _924__bF$buf0 gnd _1115_ _1029_ NOR2X1
XNOR2X1_39 vdd _1026_ gnd _1116_ _1000__bF$buf0 NOR2X1
XAOI22X1_3 gnd vdd _1115_ _1033_ _1117_ _924__bF$buf7 _1116_ AOI22X1
XNOR2X1_40 vdd _1026_ gnd _1118_ _1005__bF$buf3 NOR2X1
XNAND3X1_12 state_1_ vdd gnd _976_ _978_ _1119_ NAND3X1
XOAI21X1_36 gnd vdd _1005__bF$buf2 _1119_ _1120_ RDY_bF$buf2 OAI21X1
XOAI21X1_37 gnd vdd RDY_bF$buf1 _1118_ _1121_ _1120_ OAI21X1
XNAND2X1_47 vdd _1122_ gnd _1121_ _1117_ NAND2X1
XNAND3X1_13 _999_ vdd gnd _927_ _1098_ _1123_ NAND3X1
XINVX1_24 _1123_ _1124_ vdd gnd INVX1
XOAI21X1_38 gnd vdd _1005__bF$buf1 _1070_ _1125_ _924__bF$buf6 OAI21X1
XOAI21X1_39 gnd vdd _924__bF$buf5 _1124_ _1126_ _1125_ OAI21X1
XOAI21X1_40 gnd vdd _980__bF$buf3 _1026_ _1127_ _924__bF$buf4 OAI21X1
XNOR2X1_41 vdd _1119_ gnd _1128_ _980__bF$buf2 NOR2X1
XOAI21X1_41 gnd vdd _924__bF$buf3 _1128_ _1129_ _1127_ OAI21X1
XNAND2X1_48 vdd _1130_ gnd _1129_ _1126_ NAND2X1
XNOR2X1_42 vdd _1122_ gnd _1131_ _1130_ NOR2X1
XNAND3X1_14 _1114_ vdd gnd _1085_ _1131_ _1132_ NAND3X1
XNOR2X1_43 vdd _979__bF$buf0 gnd _1133_ _1000__bF$buf4 NOR2X1
XNAND2X1_49 vdd _1134_ gnd _924__bF$buf2 _1133_ NAND2X1
XNAND2X1_50 vdd _1135_ gnd _939__bF$buf3 _970_ NAND2X1
XNAND2X1_51 vdd _1136_ gnd _1135_ _967_ NAND2X1
XNOR2X1_44 vdd _1136_ gnd _1137_ _1046_ NOR2X1
XINVX4_3 vdd gnd _1138_ DIMUX_3_ INVX4
XOAI21X1_42 gnd vdd _930_ IRHOLD_3_ _1139_ _939__bF$buf2 OAI21X1
XAOI21X1_7 gnd vdd _930_ _1138_ _1140_ _1139_ AOI21X1
XNAND2X1_52 vdd _1141_ gnd _1066_ _1140_ NAND2X1
XOAI21X1_43 gnd vdd _953__bF$buf3 _960_ _1142_ _957_ OAI21X1
XNOR2X1_45 vdd _1142_ gnd _1143_ _1141_ NOR2X1
XNAND3X1_15 _1137_ vdd gnd _929__bF$buf1 _1143_ _1144_ NAND3X1
XAND2X2_10 vdd gnd _1144_ _1134_ _1145_ AND2X2
XNAND3X1_16 _977_ vdd gnd _925__bF$buf5 _1008_ _1146_ NAND3X1
XINVX1_25 _1146_ _1147_ vdd gnd INVX1
XNOR2X1_46 vdd _1039_ gnd _1148_ _967_ NOR2X1
XAOI22X1_4 gnd vdd _929__bF$buf0 _1148_ _1149_ _924__bF$buf1 _1147_ AOI22X1
XNAND3X1_17 _926_ vdd gnd _978_ _987_ _1150_ NAND3X1
XINVX1_26 _1150_ _1151_ vdd gnd INVX1
XOAI21X1_44 gnd vdd _988_ _979__bF$buf3 _1152_ _924__bF$buf0 OAI21X1
XOAI21X1_45 gnd vdd _924__bF$buf7 _1151_ _1153_ _1152_ OAI21X1
XNAND2X1_53 vdd _1154_ gnd _978_ _926_ NAND2X1
XNOR2X1_47 vdd _1154_ gnd _1155_ _1005__bF$buf0 NOR2X1
XOAI21X1_46 gnd vdd _1005__bF$buf4 _979__bF$buf2 _1156_ _924__bF$buf6 OAI21X1
XOAI21X1_47 gnd vdd _924__bF$buf5 _1155_ _1157_ _1156_ OAI21X1
XNAND2X1_54 vdd _1158_ gnd _1157_ _1153_ NAND2X1
XINVX1_27 _1158_ _1159_ vdd gnd INVX1
XNAND2X1_55 vdd _1160_ gnd _977_ _1099_ NAND2X1
XOAI21X1_48 gnd vdd _1000__bF$buf3 _1160_ _1161_ _924__bF$buf4 OAI21X1
XNAND3X1_18 state_3_ vdd gnd _1007_ _926_ _1162_ NAND3X1
XNOR2X1_48 vdd _1162_ gnd _1163_ _1000__bF$buf2 NOR2X1
XOAI21X1_49 gnd vdd _924__bF$buf3 _1163_ _1164_ _1161_ OAI21X1
XNOR2X1_49 vdd _1160_ gnd _1165_ _980__bF$buf1 NOR2X1
XNOR2X1_50 vdd _1165_ gnd _1166_ RDY_bF$buf0 NOR2X1
XNOR2X1_51 vdd _1088_ gnd _1167_ _983_ NOR2X1
XAOI21X1_8 gnd vdd _1167_ _925__bF$buf4 _1168_ _924__bF$buf2 AOI21X1
XOAI21X1_50 gnd vdd _1168_ _1166_ _1169_ _1164_ OAI21X1
XNAND3X1_19 _925__bF$buf3 vdd gnd _978_ _926_ _1170_ NAND3X1
XINVX1_28 _1170_ _1171_ vdd gnd INVX1
XOAI21X1_51 gnd vdd _980__bF$buf0 _979__bF$buf1 _1172_ _924__bF$buf1 OAI21X1
XOAI21X1_52 gnd vdd _924__bF$buf0 _1171_ _1173_ _1172_ OAI21X1
XOAI21X1_53 gnd vdd _1005__bF$buf3 _1160_ _1174_ _924__bF$buf7 OAI21X1
XNOR2X1_52 vdd _1162_ gnd _1175_ _1005__bF$buf2 NOR2X1
XOAI21X1_54 gnd vdd _924__bF$buf6 _1175_ _1176_ _1174_ OAI21X1
XNAND2X1_56 vdd _1177_ gnd _999_ _1017_ NAND2X1
XNAND3X1_20 _1176_ vdd gnd _1173_ _1177_ _1178_ NAND3X1
XNOR2X1_53 vdd _1169_ gnd _1179_ _1178_ NOR2X1
XAND2X2_11 vdd gnd _1179_ _1159_ _1180_ AND2X2
XNAND3X1_21 _1180_ vdd gnd _1149_ _1145_ _1181_ NAND3X1
XNOR3X1_5 vdd gnd _1132_ _1062_ _1181_ _1182_ NOR3X1
XINVX1_29 _1182_ _919_ vdd gnd INVX1
XINVX1_30 _1132_ _1183_ vdd gnd INVX1
XNAND2X1_57 vdd _1184_ gnd _967_ _1046_ NAND2X1
XNOR2X1_54 vdd _1184_ gnd _1185_ _971_ NOR2X1
XNAND3X1_22 _1185_ vdd gnd _929__bF$buf4 _1143_ _1186_ NAND3X1
XNAND2X1_58 vdd _1187_ gnd _924__bF$buf5 _1124_ NAND2X1
XOAI21X1_55 gnd vdd _1000__bF$buf1 _1001_ _1188_ _924__bF$buf4 OAI21X1
XOAI21X1_56 gnd vdd _924__bF$buf3 _1116_ _1189_ _1188_ OAI21X1
XNAND3X1_23 _1189_ vdd gnd _1187_ _1186_ _1190_ NAND3X1
XNOR2X1_55 vdd _961_ gnd _1191_ _1066_ NOR2X1
XNAND3X1_24 _957_ vdd gnd _1140_ _1191_ _1192_ NAND3X1
XNOR2X1_56 vdd _1192_ gnd _1193_ _1053_ NOR2X1
XNAND2X1_59 vdd _1194_ gnd _999_ _1077__bF$buf2 NAND2X1
XNOR2X1_57 vdd _1160_ gnd _1195_ _1005__bF$buf1 NOR2X1
XOAI21X1_57 gnd vdd _1095_ _1195_ _1196_ RDY_bF$buf8 OAI21X1
XOAI21X1_58 gnd vdd RDY_bF$buf7 _1194_ _1197_ _1196_ OAI21X1
XAOI21X1_9 gnd vdd _1193_ _929__bF$buf3 _1198_ _1197_ AOI21X1
XNOR2X1_58 vdd _1001_ gnd _1199_ _980__bF$buf4 NOR2X1
XNAND2X1_60 vdd _1200_ gnd _924__bF$buf2 _1199_ NAND2X1
XNAND2X1_61 vdd _1201_ gnd _964_ _962_ NAND2X1
XNOR2X1_59 vdd _1201_ gnd _1202_ _941_ NOR2X1
XNAND2X1_62 vdd _1203_ gnd _929__bF$buf2 _1202_ NAND2X1
XNAND3X1_25 _1203_ vdd gnd _1200_ _1198_ _1204_ NAND3X1
XOR2X2_4 _1205_ _953__bF$buf2 vdd gnd _1045_ OR2X2
XNOR2X1_60 vdd _1205_ gnd _1206_ _941_ NOR2X1
XNAND2X1_63 vdd _1207_ gnd _1135_ _1051_ NAND2X1
XINVX1_31 _1207_ _1208_ vdd gnd INVX1
XNAND2X1_64 vdd _1209_ gnd _1208_ _1206_ NAND2X1
XNOR2X1_61 vdd _1209_ gnd _1210_ _1039_ NOR2X1
XAOI22X1_5 gnd vdd _929__bF$buf1 _1210_ _1211_ _924__bF$buf1 _1105_ AOI22X1
XNOR2X1_62 vdd _971_ gnd _1212_ _1051_ NOR2X1
XNAND2X1_65 vdd _1213_ gnd _1212_ _1206_ NAND2X1
XNOR2X1_63 vdd _1213_ gnd _1214_ _1039_ NOR2X1
XAOI22X1_6 gnd vdd _929__bF$buf0 _1214_ _1215_ _924__bF$buf0 _1091_ AOI22X1
XNOR2X1_64 vdd _1146_ gnd _1216_ _924__bF$buf7 NOR2X1
XINVX1_32 Z _1217_ vdd gnd INVX1
XNAND2X1_66 vdd _1218_ gnd cond_code_1_ _1217_ NAND2X1
XOAI21X1_59 gnd vdd cond_code_1_ C _1219_ _1218_ OAI21X1
XINVX1_33 V _1220_ vdd gnd INVX1
XNAND2X1_67 vdd _1221_ gnd cond_code_1_ _1220_ NAND2X1
XOAI21X1_60 gnd vdd N cond_code_1_ _1222_ _1221_ OAI21X1
XMUX2X1_7 cond_code_2_ vdd gnd _1223_ _1219_ _1222_ MUX2X1
XXNOR2X1_1 _1223_ cond_code_0_ gnd vdd _1224_ XNOR2X1
XOAI21X1_61 gnd vdd _1000__bF$buf0 _1078_ _1225_ _924__bF$buf6 OAI21X1
XOAI21X1_62 gnd vdd _924__bF$buf5 _1056_ _1226_ _1225_ OAI21X1
XOAI21X1_63 gnd vdd RDY_bF$buf6 _1107_ _1227_ _1226_ OAI21X1
XAOI21X1_10 gnd vdd _1224_ _1216_ _1228_ _1227_ AOI21X1
XNAND3X1_26 _1211_ vdd gnd _1228_ _1215_ _1229_ NAND3X1
XNOR3X1_6 vdd gnd _1204_ _1229_ _1190_ _1230_ NOR3X1
XNOR2X1_65 vdd _1119_ gnd _1231_ _1005__bF$buf0 NOR2X1
XNOR2X1_66 vdd _1201_ gnd _1232_ _967_ NOR2X1
XAOI22X1_7 gnd vdd _929__bF$buf4 _1232_ _1233_ _924__bF$buf4 _1231_ AOI22X1
XNAND2X1_68 vdd _1234_ gnd state_0_ _1097_ NAND2X1
XNOR2X1_67 vdd _1088_ gnd _1235_ _1234_ NOR2X1
XNAND2X1_69 vdd _1236_ gnd _925__bF$buf2 _1235_ NAND2X1
XINVX2_8 vdd gnd _1237_ _1100__bF$buf2 INVX2
XNAND2X1_70 vdd _1238_ gnd _924__bF$buf3 _1237_ NAND2X1
XOAI21X1_64 gnd vdd _924__bF$buf2 _1236_ _1239_ _1238_ OAI21X1
XINVX1_34 _1128_ _1240_ vdd gnd INVX1
XNOR2X1_68 vdd _1119_ gnd _1241_ _1000__bF$buf4 NOR2X1
XOAI21X1_65 gnd vdd _1000__bF$buf3 _979__bF$buf0 _1242_ RDY_bF$buf5 OAI21X1
XOAI21X1_66 gnd vdd RDY_bF$buf4 _1241_ _1243_ _1242_ OAI21X1
XOAI21X1_67 gnd vdd RDY_bF$buf3 _1240_ _1244_ _1243_ OAI21X1
XOR2X2_5 _1245_ _1239_ vdd gnd _1244_ OR2X2
XOAI21X1_68 gnd vdd _953__bF$buf1 _956_ _1246_ _961_ OAI21X1
XNAND2X1_71 vdd _1247_ gnd _951_ _1140_ NAND2X1
XOAI21X1_69 gnd vdd _1246_ _1141_ _1248_ _1247_ OAI21X1
XNOR2X1_69 vdd _1065__bF$buf2 gnd _1249_ _967_ NOR2X1
XAOI21X1_11 gnd vdd _1248_ _1249_ _1250_ _1245_ AOI21X1
XAND2X2_12 vdd gnd _1233_ _1250_ _1251_ AND2X2
XNAND3X1_27 _1251_ vdd gnd _1183_ _1230_ _920_ NAND3X1
XNAND2X1_72 vdd _1252_ gnd _926_ _1008_ NAND2X1
XOAI21X1_70 gnd vdd _1005__bF$buf4 _1252_ _1253_ _924__bF$buf1 OAI21X1
XOAI21X1_71 gnd vdd _924__bF$buf0 _1118_ _1254_ _1253_ OAI21X1
XNOR2X1_70 vdd _1033_ gnd _1255_ _924__bF$buf7 NOR2X1
XOR2X2_6 _1256_ state_3_ vdd gnd state_2_ OR2X2
XNOR2X1_71 vdd _1076_ gnd _1258_ _1256_ NOR2X1
XOAI21X1_72 gnd vdd _1258_ _1235_ _1259_ _990_ OAI21X1
XOAI21X1_73 gnd vdd state_5_ _1074_ _1260_ _1259_ OAI21X1
XNOR2X1_72 vdd _1154_ gnd _1261_ _1000__bF$buf2 NOR2X1
XNOR2X1_73 vdd _1252_ gnd _1262_ _1000__bF$buf1 NOR2X1
XNOR2X1_74 vdd _1262_ gnd _1263_ _1261_ NOR2X1
XOAI21X1_74 gnd vdd _980__bF$buf3 _1014_ _1264_ _1263_ OAI21X1
XOAI21X1_75 gnd vdd _1260_ _1264_ _1265_ _1255_ OAI21X1
XINVX1_35 _1224_ _1266_ vdd gnd INVX1
XINVX8_4 vdd gnd _1107_ _1267_ INVX8
XNAND3X1_28 _1109_ vdd gnd RDY_bF$buf2 _1267_ _1268_ NAND3X1
XOAI21X1_76 gnd vdd RDY_bF$buf1 _928__bF$buf3 _1269_ _1268_ OAI21X1
XAOI21X1_12 gnd vdd _1266_ _1216_ _1270_ _1269_ AOI21X1
XAND2X2_13 vdd gnd _1265_ _1270_ _1271_ AND2X2
XAOI21X1_13 gnd vdd _1053_ _967_ _1272_ _1039_ AOI21X1
XNAND2X1_73 vdd _1273_ gnd _1137_ _1143_ NAND2X1
XOAI21X1_77 gnd vdd _967_ _1201_ _1274_ _1273_ OAI21X1
XNOR2X1_75 vdd _1274_ gnd _1275_ _1272_ NOR2X1
XNAND2X1_74 vdd _1276_ gnd _1185_ _1143_ NAND2X1
XOAI21X1_78 gnd vdd _1039_ _1213_ _1277_ _1276_ OAI21X1
XNAND2X1_75 vdd _1278_ gnd _1066_ _947_ NAND2X1
XNOR2X1_76 vdd _1278_ gnd _1279_ _1246_ NOR2X1
XNAND2X1_76 vdd _1280_ gnd _967_ _1279_ NAND2X1
XOAI21X1_79 gnd vdd _1192_ _1213_ _1281_ _1280_ OAI21X1
XNOR2X1_77 vdd _1277_ gnd _1282_ _1281_ NOR2X1
XNOR2X1_78 vdd _1141_ gnd _1283_ _1246_ NOR2X1
XAOI22X1_8 gnd vdd _967_ _1283_ _1284_ _964_ _973_ AOI22X1
XOAI21X1_80 gnd vdd _1066_ _1140_ _1285_ _929__bF$buf3 OAI21X1
XINVX1_36 _1285_ _1286_ vdd gnd INVX1
XNAND2X1_77 vdd _1287_ gnd _1286_ _1284_ NAND2X1
XAOI21X1_14 gnd vdd _941_ _1248_ _1288_ _1287_ AOI21X1
XNAND3X1_29 _1282_ vdd gnd _1275_ _1288_ _1289_ NAND3X1
XNOR2X1_79 vdd _1142_ gnd _1290_ _1247_ NOR2X1
XOAI21X1_81 gnd vdd _1207_ _1184_ _1291_ _972_ OAI21X1
XOAI21X1_82 gnd vdd _953__bF$buf0 _960_ _1292_ _1037_ OAI21X1
XNAND2X1_78 vdd _1293_ gnd _1246_ _1292_ NAND2X1
XNOR2X1_80 vdd _1247_ gnd _1294_ _941_ NOR2X1
XAND2X2_14 vdd gnd _1294_ _1293_ _1295_ AND2X2
XAOI21X1_15 gnd vdd _1290_ _1291_ _1296_ _1295_ AOI21X1
XNOR2X1_81 vdd _1141_ gnd _1297_ _1292_ NOR2X1
XAOI21X1_16 gnd vdd _1143_ _1136_ _1298_ _1297_ AOI21X1
XOAI21X1_83 gnd vdd _953__bF$buf4 _1045_ _1299_ _967_ OAI21X1
XINVX1_37 _1299_ _1300_ vdd gnd INVX1
XNAND2X1_79 vdd _1301_ gnd _1208_ _1300_ NAND2X1
XNOR2X1_82 vdd _1301_ gnd _1302_ _1039_ NOR2X1
XINVX2_9 vdd gnd _1303_ DIMUX_6_ INVX2
XOAI21X1_84 gnd vdd _930_ IRHOLD_6_ _1304_ _939__bF$buf1 OAI21X1
XAOI21X1_17 gnd vdd _930_ _1303_ _1305_ _1304_ AOI21X1
XNAND2X1_80 vdd _1306_ gnd _1135_ _1305_ NAND2X1
XNOR2X1_83 vdd _1306_ gnd _1307_ _1299_ NOR2X1
XNAND2X1_81 vdd _1308_ gnd _1307_ _1290_ NAND2X1
XOAI21X1_85 gnd vdd _1039_ _1209_ _1309_ _1308_ OAI21X1
XNOR2X1_84 vdd _1309_ gnd _1310_ _1302_ NOR2X1
XNAND3X1_30 _1298_ vdd gnd _1296_ _1310_ _1311_ NAND3X1
XOAI21X1_86 gnd vdd _1311_ _1289_ _1312_ _1271_ OAI21X1
XNAND2X1_82 vdd _1313_ gnd _926_ _927_ NAND2X1
XNOR2X1_85 vdd _1313_ gnd _1314_ _1000__bF$buf0 NOR2X1
XOAI21X1_87 gnd vdd _1000__bF$buf4 _1094_ _1315_ RDY_bF$buf0 OAI21X1
XOAI21X1_88 gnd vdd RDY_bF$buf8 _1314_ _1316_ _1315_ OAI21X1
XNOR2X1_86 vdd _1313_ gnd _1317_ _1005__bF$buf3 NOR2X1
XOAI21X1_89 gnd vdd _1005__bF$buf2 _1094_ _1318_ RDY_bF$buf7 OAI21X1
XOAI21X1_90 gnd vdd RDY_bF$buf6 _1317_ _1319_ _1318_ OAI21X1
XNAND2X1_83 vdd _1320_ gnd _1319_ _1316_ NAND2X1
XNOR2X1_87 vdd _1312_ gnd _1321_ _1320_ NOR2X1
XOR2X2_7 _1322_ _1190_ vdd gnd _1204_ OR2X2
XNAND2X1_84 vdd _1323_ gnd _924__bF$buf6 _1262_ NAND2X1
XOAI21X1_91 gnd vdd _1065__bF$buf1 _1298_ _1324_ _1323_ OAI21X1
XINVX1_38 _985_ _1325_ vdd gnd INVX1
XNAND2X1_85 vdd _1326_ gnd write_back RDY_bF$buf5 NAND2X1
XAOI21X1_18 gnd vdd _1059_ _1326_ _1327_ _1028_ AOI21X1
XAOI21X1_19 gnd vdd _1325_ _924__bF$buf5 _1328_ _1327_ AOI21X1
XINVX1_39 _1328_ _1329_ vdd gnd INVX1
XNOR2X1_88 vdd _1324_ gnd _1330_ _1329_ NOR2X1
XAND2X2_15 vdd gnd _1112_ _1177_ _1331_ AND2X2
XAND2X2_16 vdd gnd _1331_ _1126_ _1332_ AND2X2
XAND2X2_17 vdd gnd _1332_ _1228_ _1333_ AND2X2
XAND2X2_18 vdd gnd _1333_ _1149_ _1334_ AND2X2
XNAND3X1_31 _1334_ vdd gnd _1085_ _1330_ _1335_ NAND3X1
XNOR3X1_7 vdd gnd _1322_ _1335_ _1062_ _1336_ NOR3X1
XNAND3X1_32 _1336_ vdd gnd _1254_ _1321_ _921_ NAND3X1
XAOI22X1_9 gnd vdd _941_ _1248_ _1337_ _1143_ _1185_ AOI22X1
XNAND3X1_33 _1298_ vdd gnd _1284_ _1337_ _1338_ NAND3X1
XINVX1_40 _1338_ _1339_ vdd gnd INVX1
XNOR2X1_89 vdd _1142_ gnd _1340_ _1278_ NOR2X1
XNOR2X1_90 vdd _1306_ gnd _1341_ _1184_ NOR2X1
XNAND2X1_86 vdd _1342_ gnd _1341_ _1340_ NAND2X1
XNAND3X1_34 _1308_ vdd gnd _1280_ _1342_ _1343_ NAND3X1
XINVX1_41 _1272_ _1344_ vdd gnd INVX1
XAOI21X1_20 gnd vdd _1143_ _1137_ _1345_ _1285_ AOI21X1
XNAND2X1_87 vdd _1346_ gnd _1345_ _1344_ NAND2X1
XNOR3X1_8 vdd gnd _1343_ _1346_ _1210_ _1347_ NOR3X1
XNAND2X1_88 vdd _1348_ gnd _1341_ _1290_ NAND2X1
XNOR2X1_91 vdd _1232_ gnd _1349_ _1302_ NOR2X1
XNAND3X1_35 _1296_ vdd gnd _1348_ _1349_ _1350_ NAND3X1
XINVX1_42 _1350_ _1351_ vdd gnd INVX1
XNAND3X1_36 _1347_ vdd gnd _1339_ _1351_ _1352_ NAND3X1
XINVX1_43 _1254_ _1353_ vdd gnd INVX1
XNOR2X1_92 vdd _1353_ gnd _1354_ _1320_ NOR2X1
XNAND3X1_37 _1354_ vdd gnd _1271_ _1352_ _1355_ NAND3X1
XNAND2X1_89 vdd _1356_ gnd _1038_ _952_ NAND2X1
XNOR2X1_93 vdd _1356_ gnd _1357_ _1042_ NOR2X1
XOAI21X1_92 gnd vdd _1297_ _1357_ _1358_ _929__bF$buf2 OAI21X1
XNAND3X1_38 _1328_ vdd gnd _1323_ _1358_ _1359_ NAND3X1
XNOR2X1_94 vdd _1140_ gnd _1360_ _1066_ NOR2X1
XAOI22X1_10 gnd vdd _1249_ _1360_ _1361_ _924__bF$buf4 _1151_ AOI22X1
XOAI21X1_93 gnd vdd _980__bF$buf2 _1070_ _1362_ RDY_bF$buf4 OAI21X1
XOAI21X1_94 gnd vdd RDY_bF$buf3 _1155_ _1363_ _1362_ OAI21X1
XNAND2X1_90 vdd _1364_ gnd _1363_ _1361_ NAND2X1
XOAI21X1_95 gnd vdd _1005__bF$buf1 _1070_ _1365_ RDY_bF$buf2 OAI21X1
XOAI21X1_96 gnd vdd RDY_bF$buf1 _1261_ _1366_ _1365_ OAI21X1
XOAI21X1_97 gnd vdd RDY_bF$buf0 _1170_ _1367_ _1366_ OAI21X1
XNOR2X1_95 vdd _1364_ gnd _1368_ _1367_ NOR2X1
XNAND3X1_39 _1368_ vdd gnd _1250_ _1233_ _1369_ NAND3X1
XNAND3X1_40 _1341_ vdd gnd _929__bF$buf1 _1290_ _1370_ NAND3X1
XNAND2X1_91 vdd _1372_ gnd _924__bF$buf3 _1175_ NAND2X1
XAND2X2_19 vdd gnd _1370_ _1372_ _1373_ AND2X2
XOAI21X1_98 gnd vdd _1000__bF$buf3 _1074_ _1374_ RDY_bF$buf8 OAI21X1
XOAI21X1_99 gnd vdd RDY_bF$buf7 _1163_ _1375_ _1374_ OAI21X1
XAND2X2_20 vdd gnd _1290_ _1291_ _1376_ AND2X2
XOAI21X1_100 gnd vdd _1295_ _1376_ _1377_ _929__bF$buf0 OAI21X1
XNAND3X1_41 _1375_ vdd gnd _1373_ _1377_ _1378_ NAND3X1
XNOR3X1_9 vdd gnd _1369_ _1378_ _1359_ _1379_ NOR3X1
XNAND3X1_42 _1379_ vdd gnd _1230_ _1182_ _1380_ NAND3X1
XOAI21X1_101 gnd vdd _1065__bF$buf0 _1280_ _1381_ _1200_ OAI21X1
XNOR3X1_10 vdd gnd _1320_ _1169_ _1239_ _1382_ NOR3X1
XNAND2X1_92 vdd _1383_ gnd _1126_ _1106_ NAND2X1
XNAND2X1_93 vdd _1384_ gnd _1176_ _1177_ NAND2X1
XNOR2X1_96 vdd _1383_ gnd _1385_ _1384_ NOR2X1
XNAND3X1_43 _1385_ vdd gnd _1102_ _1382_ _1386_ NAND3X1
XNOR3X1_11 vdd gnd _1386_ _1381_ _1073_ _1387_ NOR3X1
XNAND2X1_94 vdd _1389_ gnd _1211_ _1215_ NAND2X1
XNOR2X1_97 vdd _1389_ gnd _1390_ _1190_ NOR2X1
XNOR2X1_98 vdd _1284_ gnd _1391_ _1065__bF$buf3 NOR2X1
XNAND3X1_44 _1375_ vdd gnd _1372_ _1370_ _1392_ NAND3X1
XNOR3X1_12 vdd gnd _1392_ _1391_ _1035_ _1393_ NOR3X1
XNAND3X1_45 _1393_ vdd gnd _1387_ _1390_ _1394_ NAND3X1
XNOR2X1_99 vdd _1312_ gnd _1396_ _1394_ NOR2X1
XOAI21X1_102 gnd vdd _1355_ _1380_ _922_ _1396_ OAI21X1
XNAND3X1_46 _1254_ vdd gnd _1319_ _1061_ _1397_ NAND3X1