* XSpice netlist created from SPICE and liberty sources by spi2xspice.py
*SPICE netlist created from BLIF module cpu by blif2BSpice
.subckt cpu a_vdd a_gnd a_clk a_reset a_DI_0_ a_DI_1_ a_DI_2_ a_DI_3_ a_DI_4_ a_DI_5_ a_DI_6_ a_DI_7_ a_IRQ a_NMI a_RDY a_AB_0_ a_AB_1_ a_AB_2_ a_AB_3_ a_AB_4_ a_AB_5_ a_AB_6_ a_AB_7_ a_AB_8_ a_AB_9_ a_AB_10_ a_AB_11_ a_AB_12_ a_AB_13_ a_AB_14_ a_AB_15_ a_DO_0_ a_DO_1_ a_DO_2_ a_DO_3_ a_DO_4_ a_DO_5_ a_DO_6_ a_DO_7_ a_WE
ABUFX4_1 [_925_] _925__bF$buf5 d_lut_BUFX4
ABUFX4_2 [_925_] _925__bF$buf4 d_lut_BUFX4
ABUFX4_3 [_925_] _925__bF$buf3 d_lut_BUFX4
ABUFX4_4 [_925_] _925__bF$buf2 d_lut_BUFX4
ABUFX4_5 [_925_] _925__bF$buf1 d_lut_BUFX4
ABUFX4_6 [_925_] _925__bF$buf0 d_lut_BUFX4
ABUFX4_7 [_980_] _980__bF$buf4 d_lut_BUFX4
ABUFX4_8 [_980_] _980__bF$buf3 d_lut_BUFX4
ABUFX4_9 [_980_] _980__bF$buf2 d_lut_BUFX4
ABUFX4_10 [_980_] _980__bF$buf1 d_lut_BUFX4
ABUFX4_11 [_980_] _980__bF$buf0 d_lut_BUFX4
ABUFX4_12 [_1100_] _1100__bF$buf3 d_lut_BUFX4
ABUFX4_13 [_1100_] _1100__bF$buf2 d_lut_BUFX4
ABUFX4_14 [_1100_] _1100__bF$buf1 d_lut_BUFX4
ABUFX4_15 [_1100_] _1100__bF$buf0 d_lut_BUFX4
ABUFX4_16 [clk] clk_bF$buf11 d_lut_BUFX4
ABUFX4_17 [clk] clk_bF$buf10 d_lut_BUFX4
ABUFX4_18 [clk] clk_bF$buf9 d_lut_BUFX4
ABUFX4_19 [clk] clk_bF$buf8 d_lut_BUFX4
ABUFX4_20 [clk] clk_bF$buf7 d_lut_BUFX4
ABUFX4_21 [clk] clk_bF$buf6 d_lut_BUFX4
ABUFX4_22 [clk] clk_bF$buf5 d_lut_BUFX4
ABUFX4_23 [clk] clk_bF$buf4 d_lut_BUFX4
ABUFX4_24 [clk] clk_bF$buf3 d_lut_BUFX4
ABUFX4_25 [clk] clk_bF$buf2 d_lut_BUFX4
ABUFX4_26 [clk] clk_bF$buf1 d_lut_BUFX4
ABUFX4_27 [clk] clk_bF$buf0 d_lut_BUFX4
ABUFX4_28 [_929_] _929__bF$buf4 d_lut_BUFX4
ABUFX4_29 [_929_] _929__bF$buf3 d_lut_BUFX4
ABUFX4_30 [_929_] _929__bF$buf2 d_lut_BUFX4
ABUFX4_31 [_929_] _929__bF$buf1 d_lut_BUFX4
ABUFX4_32 [_929_] _929__bF$buf0 d_lut_BUFX4
ABUFX4_33 [_924_] _924__bF$buf7 d_lut_BUFX4
ABUFX4_34 [_924_] _924__bF$buf6 d_lut_BUFX4
ABUFX4_35 [_924_] _924__bF$buf5 d_lut_BUFX4
ABUFX4_36 [_924_] _924__bF$buf4 d_lut_BUFX4
ABUFX4_37 [_924_] _924__bF$buf3 d_lut_BUFX4
ABUFX4_38 [_924_] _924__bF$buf2 d_lut_BUFX4
ABUFX4_39 [_924_] _924__bF$buf1 d_lut_BUFX4
ABUFX4_40 [_924_] _924__bF$buf0 d_lut_BUFX4
ABUFX2_1 [_1789_] _1789__bF$buf3 d_lut_BUFX2
ABUFX4_41 [_1789_] _1789__bF$buf2 d_lut_BUFX4
ABUFX4_42 [_1789_] _1789__bF$buf1 d_lut_BUFX4
ABUFX4_43 [_1789_] _1789__bF$buf0 d_lut_BUFX4
ABUFX4_44 [_928_] _928__bF$buf4 d_lut_BUFX4
ABUFX4_45 [_928_] _928__bF$buf3 d_lut_BUFX4
ABUFX4_46 [_928_] _928__bF$buf2 d_lut_BUFX4
ABUFX4_47 [_928_] _928__bF$buf1 d_lut_BUFX4
ABUFX4_48 [_928_] _928__bF$buf0 d_lut_BUFX4
ABUFX4_49 [_953_] _953__bF$buf4 d_lut_BUFX4
ABUFX4_50 [_953_] _953__bF$buf3 d_lut_BUFX4
ABUFX4_51 [_953_] _953__bF$buf2 d_lut_BUFX4
ABUFX4_52 [_953_] _953__bF$buf1 d_lut_BUFX4
ABUFX4_53 [_953_] _953__bF$buf0 d_lut_BUFX4
ABUFX4_54 [_578_] _578__bF$buf4 d_lut_BUFX4
ABUFX4_55 [_578_] _578__bF$buf3 d_lut_BUFX4
ABUFX4_56 [_578_] _578__bF$buf2 d_lut_BUFX4
ABUFX4_57 [_578_] _578__bF$buf1 d_lut_BUFX4
ABUFX4_58 [_578_] _578__bF$buf0 d_lut_BUFX4
ABUFX4_59 [RDY] RDY_bF$buf8 d_lut_BUFX4
ABUFX4_60 [RDY] RDY_bF$buf7 d_lut_BUFX4
ABUFX4_61 [RDY] RDY_bF$buf6 d_lut_BUFX4
ABUFX4_62 [RDY] RDY_bF$buf5 d_lut_BUFX4
ABUFX4_63 [RDY] RDY_bF$buf4 d_lut_BUFX4
ABUFX4_64 [RDY] RDY_bF$buf3 d_lut_BUFX4
ABUFX4_65 [RDY] RDY_bF$buf2 d_lut_BUFX4
ABUFX4_66 [RDY] RDY_bF$buf1 d_lut_BUFX4
ABUFX4_67 [RDY] RDY_bF$buf0 d_lut_BUFX4
ABUFX2_2 [_939_] _939__bF$buf3 d_lut_BUFX2
ABUFX2_3 [_939_] _939__bF$buf2 d_lut_BUFX2
ABUFX2_4 [_939_] _939__bF$buf1 d_lut_BUFX2
ABUFX2_5 [_939_] _939__bF$buf0 d_lut_BUFX2
ABUFX4_68 [_1077_] _1077__bF$buf3 d_lut_BUFX4
ABUFX4_69 [_1077_] _1077__bF$buf2 d_lut_BUFX4
ABUFX2_6 [_1077_] _1077__bF$buf1 d_lut_BUFX2
ABUFX2_7 [_1077_] _1077__bF$buf0 d_lut_BUFX2
ABUFX4_70 [_1065_] _1065__bF$buf3 d_lut_BUFX4
ABUFX4_71 [_1065_] _1065__bF$buf2 d_lut_BUFX4
ABUFX4_72 [_1065_] _1065__bF$buf1 d_lut_BUFX4
ABUFX4_73 [_1065_] _1065__bF$buf0 d_lut_BUFX4
ABUFX4_74 [_1005_] _1005__bF$buf4 d_lut_BUFX4
ABUFX4_75 [_1005_] _1005__bF$buf3 d_lut_BUFX4
ABUFX4_76 [_1005_] _1005__bF$buf2 d_lut_BUFX4
ABUFX4_77 [_1005_] _1005__bF$buf1 d_lut_BUFX4
ABUFX4_78 [_1005_] _1005__bF$buf0 d_lut_BUFX4
ABUFX4_79 [_1000_] _1000__bF$buf4 d_lut_BUFX4
ABUFX4_80 [_1000_] _1000__bF$buf3 d_lut_BUFX4
ABUFX4_81 [_1000_] _1000__bF$buf2 d_lut_BUFX4
ABUFX4_82 [_1000_] _1000__bF$buf1 d_lut_BUFX4
ABUFX4_83 [_1000_] _1000__bF$buf0 d_lut_BUFX4
ABUFX4_84 [_1509_] _1509__bF$buf4 d_lut_BUFX4
ABUFX4_85 [_1509_] _1509__bF$buf3 d_lut_BUFX4
ABUFX4_86 [_1509_] _1509__bF$buf2 d_lut_BUFX4
ABUFX4_87 [_1509_] _1509__bF$buf1 d_lut_BUFX4
ABUFX4_88 [_1509_] _1509__bF$buf0 d_lut_BUFX4
ABUFX4_89 [_979_] _979__bF$buf3 d_lut_BUFX4
ABUFX4_90 [_979_] _979__bF$buf2 d_lut_BUFX4
ABUFX2_8 [_979_] _979__bF$buf1 d_lut_BUFX2
ABUFX4_91 [_979_] _979__bF$buf0 d_lut_BUFX4
AINVX8_1 [RDY_bF$buf8] _924_ d_lut_INVX8
ANOR2X1_1 [state_5_ state_4_] _925_ d_lut_NOR2X1
ANOR2X1_2 [state_0_ state_1_] _926_ d_lut_NOR2X1
AAND2X2_1 [state_2_ state_3_] _927_ d_lut_AND2X2
ANAND3X1_1 [_925__bF$buf5 _926_ _927_] _928_ d_lut_NAND3X1
ANOR2X1_3 [_924__bF$buf7 _928__bF$buf4] _929_ d_lut_NOR2X1
AINVX4_1 [IRHOLD_valid] _930_ d_lut_INVX4
AINVX1_1 [DIHOLD_4_] _932_ d_lut_INVX1
ANAND2X1_1 [RDY_bF$buf7 DI_4_] _933_ d_lut_NAND2X1
AOAI21X1_1 [RDY_bF$buf6 _932_ _933_] DIMUX_4_ d_lut_OAI21X1
AINVX4_2 [DIMUX_4_] _934_ d_lut_INVX4
AINVX1_2 [I] _935_ d_lut_INVX1
AINVX1_3 [IRQ] _936_ d_lut_INVX1
AINVX2_1 [NMI_edge] _937_ d_lut_INVX2
ANAND2X1_2 [_936_ _937_] _938_ d_lut_NAND2X1
AOAI21X1_2 [_935_ NMI_edge _938_] _939_ d_lut_OAI21X1
AOAI21X1_3 [_930_ IRHOLD_4_ _939__bF$buf3] _940_ d_lut_OAI21X1
AAOI21X1_1 [_930_ _934_ _940_] _941_ d_lut_AOI21X1
AINVX1_4 [IRHOLD_3_] _942_ d_lut_INVX1
AINVX1_5 [DIHOLD_3_] _943_ d_lut_INVX1
ANAND2X1_3 [RDY_bF$buf5 DI_3_] _944_ d_lut_NAND2X1
AOAI21X1_4 [RDY_bF$buf4 _943_ _944_] DIMUX_3_ d_lut_OAI21X1
ANAND2X1_4 [_930_ DIMUX_3_] _945_ d_lut_NAND2X1
AOAI21X1_5 [_930_ _942_ _945_] _946_ d_lut_OAI21X1
ANAND2X1_5 [_939__bF$buf2 _946_] _947_ d_lut_NAND2X1
AMUX2X1_1 [DI_2_ DIHOLD_2_ RDY_bF$buf3] _948_ d_lut_MUX2X1
ANAND2X1_6 [IRHOLD_valid IRHOLD_2_] _949_ d_lut_NAND2X1
AOAI21X1_6 [IRHOLD_valid _948_ _949_] _950_ d_lut_OAI21X1
AAND2X2_2 [_950_ _939__bF$buf1] _951_ d_lut_AND2X2
ANOR2X1_4 [_951_ _947_] _952_ d_lut_NOR2X1
AOAI21X1_7 [I _936_ _937_] _953_ d_lut_OAI21X1
AINVX1_6 [DIHOLD_1_] _954_ d_lut_INVX1
ANAND2X1_7 [RDY_bF$buf2 DI_1_] _955_ d_lut_NAND2X1
AOAI21X1_8 [RDY_bF$buf1 _954_ _955_] DIMUX_1_ d_lut_OAI21X1
AMUX2X1_2 [DIMUX_1_ IRHOLD_1_ _930_] _956_ d_lut_MUX2X1
AOR2X2_1 [_956_ _953__bF$buf4] _957_ d_lut_OR2X2
AINVX1_7 [DIHOLD_0_] _958_ d_lut_INVX1
ANAND2X1_8 [RDY_bF$buf0 DI_0_] _959_ d_lut_NAND2X1
AOAI21X1_9 [RDY_bF$buf8 _958_ _959_] DIMUX_0_ d_lut_OAI21X1
AMUX2X1_3 [DIMUX_0_ IRHOLD_0_ _930_] _960_ d_lut_MUX2X1
ANOR2X1_5 [_953__bF$buf3 _960_] _961_ d_lut_NOR2X1
AAND2X2_3 [_957_ _961_] _962_ d_lut_AND2X2
ANAND2X1_9 [_952_ _962_] _963_ d_lut_NAND2X1
AOAI21X1_10 [_950_ _946_ _939__bF$buf0] _964_ d_lut_OAI21X1
AINVX1_8 [IRHOLD_4_] _965_ d_lut_INVX1
AAOI21X1_2 [IRHOLD_valid _965_ _953__bF$buf2] _966_ d_lut_AOI21X1
AOAI21X1_11 [IRHOLD_valid DIMUX_4_ _966_] _967_ d_lut_OAI21X1
AMUX2X1_4 [DI_7_ DIHOLD_7_ RDY_bF$buf7] _968_ d_lut_MUX2X1
ANAND2X1_10 [IRHOLD_valid IRHOLD_7_] _969_ d_lut_NAND2X1
AOAI21X1_12 [IRHOLD_valid _968_ _969_] _970_ d_lut_OAI21X1
AAND2X2_4 [_970_ _939__bF$buf3] _971_ d_lut_AND2X2
ANAND2X1_11 [_967_ _971_] _972_ d_lut_NAND2X1
ANOR2X1_6 [_961_ _972_] _973_ d_lut_NOR2X1
ANAND2X1_12 [_964_ _973_] _974_ d_lut_NAND2X1
AOAI21X1_13 [_941_ _963_ _974_] _975_ d_lut_OAI21X1
AINVX2_2 [state_0_] _976_ d_lut_INVX2
ANOR2X1_7 [state_1_ _976_] _977_ d_lut_NOR2X1
ANOR2X1_8 [state_2_ state_3_] _978_ d_lut_NOR2X1
ANAND2X1_13 [_978_ _977_] _979_ d_lut_NAND2X1
AINVX8_2 [_925__bF$buf4] _980_ d_lut_INVX8
AINVX1_9 [state_3_] _981_ d_lut_INVX1
ANAND2X1_14 [state_2_ _981_] _982_ d_lut_NAND2X1
AOR2X2_2 [state_0_ state_1_] _983_ d_lut_OR2X2
ANOR2X1_9 [_983_ _982_] _984_ d_lut_NOR2X1
ANAND2X1_15 [_925__bF$buf3 _984_] _985_ d_lut_NAND2X1
AOAI21X1_14 [_979__bF$buf3 _980__bF$buf4 _985_] _986_ d_lut_OAI21X1
AAND2X2_5 [state_5_ state_4_] _987_ d_lut_AND2X2
AINVX2_3 [_987_] _988_ d_lut_INVX2
AINVX1_10 [state_5_] _989_ d_lut_INVX1
ANOR2X1_10 [state_4_ _989_] _990_ d_lut_NOR2X1
ANAND2X1_16 [state_2_ state_3_] _991_ d_lut_NAND2X1
ANAND2X1_17 [state_0_ state_1_] _992_ d_lut_NAND2X1
ANOR2X1_11 [_991_ _992_] _993_ d_lut_NOR2X1
ANAND2X1_18 [_990_ _993_] _994_ d_lut_NAND2X1
AOAI21X1_15 [_988_ _979__bF$buf2 _994_] _995_ d_lut_OAI21X1
ANOR2X1_12 [_995_ _986_] _996_ d_lut_NOR2X1
AINVX1_11 [_979__bF$buf1] _997_ d_lut_INVX1
AINVX2_4 [state_4_] _998_ d_lut_INVX2
ANOR2X1_13 [state_5_ _998_] _999_ d_lut_NOR2X1
ANAND2X1_19 [state_5_ _998_] _1000_ d_lut_NAND2X1
ANAND3X1_2 [_976_ state_1_ _927_] _1001_ d_lut_NAND3X1
ANOR2X1_14 [_1000__bF$buf4 _1001_] _1002_ d_lut_NOR2X1
AAOI21X1_3 [_997_ _999_ _1002_] _1003_ d_lut_AOI21X1
ANOR3X1_1 [state_1_ _976_ _991_] _1004_ d_lut_NOR3X1
ANAND2X1_20 [state_4_ _989_] _1005_ d_lut_NAND2X1
ANAND2X1_21 [_1000__bF$buf3 _1005__bF$buf4] _1006_ d_lut_NAND2X1
AINVX2_5 [state_2_] _1007_ d_lut_INVX2
ANOR2X1_15 [state_3_ _1007_] _1008_ d_lut_NOR2X1
ANAND2X1_22 [_977_ _1008_] _1009_ d_lut_NAND2X1
ANOR2X1_16 [_1005__bF$buf3 _1009_] _1010_ d_lut_NOR2X1
AAOI21X1_4 [_1004_ _1006_ _1010_] _1011_ d_lut_AOI21X1
ANAND2X1_23 [_1003_ _1011_] _1012_ d_lut_NAND2X1
ANAND3X1_3 [RDY_bF$buf6 _996_ _1012_] _1013_ d_lut_NAND3X1
ANAND2X1_24 [_927_ _977_] _1014_ d_lut_NAND2X1
ANOR3X1_2 [state_0_ state_1_ _991_] _1015_ d_lut_NOR3X1
ANAND2X1_25 [RDY_bF$buf5 _1015_] _1016_ d_lut_NAND2X1
AOAI21X1_16 [RDY_bF$buf4 _1014_ _1016_] _1017_ d_lut_OAI21X1
AAND2X2_6 [_1017_ _990_] _1018_ d_lut_AND2X2
ANAND2X1_26 [_999_ _984_] _1019_ d_lut_NAND2X1
ANOR2X1_17 [_980__bF$buf3 _1014_] _1020_ d_lut_NOR2X1
AINVX2_6 [_1020_] _1021_ d_lut_INVX2
ANOR2X1_18 [ALU.CO store] _1022_ d_lut_NOR2X1
ANAND2X1_27 [RDY_bF$buf3 _1022_] _1023_ d_lut_NAND2X1
AOAI22X1_1 [_1019_ _1023_ RDY_bF$buf2 _1021_] _1024_ d_lut_OAI22X1
AAND2X2_7 [state_0_ state_1_] _1025_ d_lut_AND2X2
ANAND2X1_28 [_978_ _1025_] _1026_ d_lut_NAND2X1
AINVX1_12 [_1026_] _1027_ d_lut_INVX1
ANAND2X1_29 [_925__bF$buf2 _1027_] _1028_ d_lut_NAND2X1
AINVX2_7 [write_back] _1029_ d_lut_INVX2
ANAND3X1_4 [_1029_ RDY_bF$buf1 _1022_] _1030_ d_lut_NAND3X1
ANOR2X1_19 [_1030_ _1028_] _1031_ d_lut_NOR2X1
ANOR3X1_3 [_1031_ _1018_ _1024_] _1032_ d_lut_NOR3X1
AOR2X2_3 [_986_ _995_] _1033_ d_lut_OR2X2
ANAND3X1_5 [_1029_ RDY_bF$buf0 _1033_] _1034_ d_lut_NAND3X1
ANAND3X1_6 [_1013_ _1034_ _1032_] _1035_ d_lut_NAND3X1
AAOI21X1_5 [_975_ _929__bF$buf4 _1035_] _1036_ d_lut_AOI21X1
ANOR2X1_20 [_953__bF$buf1 _956_] _1037_ d_lut_NOR2X1
ANOR2X1_21 [_1037_ _961_] _1038_ d_lut_NOR2X1
ANAND2X1_30 [_964_ _1038_] _1039_ d_lut_NAND2X1
ANAND2X1_31 [_930_ DIMUX_4_] _1040_ d_lut_NAND2X1
AOAI21X1_17 [_930_ _965_ _1040_] _1041_ d_lut_OAI21X1
AOAI21X1_18 [_970_ _1041_ _939__bF$buf2] _1042_ d_lut_OAI21X1
AINVX1_13 [DIHOLD_5_] _1043_ d_lut_INVX1
ANAND2X1_32 [RDY_bF$buf8 DI_5_] _1044_ d_lut_NAND2X1
AOAI21X1_19 [RDY_bF$buf7 _1043_ _1044_] DIMUX_5_ d_lut_OAI21X1
AMUX2X1_5 [DIMUX_5_ IRHOLD_5_ _930_] _1045_ d_lut_MUX2X1
ANOR2X1_22 [_953__bF$buf0 _1045_] _1046_ d_lut_NOR2X1
AINVX1_14 [DIHOLD_6_] _1047_ d_lut_INVX1
ANAND2X1_33 [RDY_bF$buf6 DI_6_] _1048_ d_lut_NAND2X1
AOAI21X1_20 [RDY_bF$buf5 _1047_ _1048_] DIMUX_6_ d_lut_OAI21X1
AINVX1_15 [IRHOLD_6_] _1049_ d_lut_INVX1
AAOI21X1_6 [IRHOLD_valid _1049_ _953__bF$buf4] _1050_ d_lut_AOI21X1
AOAI21X1_21 [IRHOLD_valid DIMUX_6_ _1050_] _1051_ d_lut_OAI21X1
ANOR2X1_23 [_1051_ _1046_] _1052_ d_lut_NOR2X1
ANAND2X1_34 [_1042_ _1052_] _1053_ d_lut_NAND2X1
ANOR2X1_24 [_1053_ _1039_] _1054_ d_lut_NOR2X1
ANAND3X1_7 [_977_ _990_ _1008_] _1055_ d_lut_NAND3X1
AINVX1_16 [_1055_] _1056_ d_lut_INVX1
AAOI22X1_1 [_924__bF$buf6 _1056_ _929__bF$buf3 _1054_] _1057_ d_lut_AOI22X1
ANAND2X1_35 [_924__bF$buf5 _1010_] _1058_ d_lut_NAND2X1
AOAI21X1_22 [ALU.CO store RDY_bF$buf4] _1059_ d_lut_OAI21X1
AOAI21X1_23 [_1019_ _1059_ _1058_] _1060_ d_lut_OAI21X1
AINVX1_17 [_1060_] _1061_ d_lut_INVX1
ANAND3X1_8 [_1057_ _1061_ _1036_] _1062_ d_lut_NAND3X1
AINVX1_18 [_994_] _1063_ d_lut_INVX1
AOAI21X1_24 [_1041_ _946_ _939__bF$buf1] _1064_ d_lut_OAI21X1
AINVX8_3 [_929__bF$buf2] _1065_ d_lut_INVX8
ANAND2X1_36 [_939__bF$buf0 _950_] _1066_ d_lut_NAND2X1
ANOR2X1_25 [_1066_ _1065__bF$buf3] _1067_ d_lut_NOR2X1
AAOI22X1_2 [_924__bF$buf4 _1063_ _1064_ _1067_] _1068_ d_lut_AOI22X1
AOAI21X1_25 [_980__bF$buf2 _1001_ RDY_bF$buf3] _1069_ d_lut_OAI21X1
ANAND2X1_37 [_927_ _1025_] _1070_ d_lut_NAND2X1
ANOR2X1_26 [_980__bF$buf1 _1070_] _1071_ d_lut_NOR2X1
AOAI21X1_26 [RDY_bF$buf2 _1071_ _1069_] _1072_ d_lut_OAI21X1
ANAND2X1_38 [_1072_ _1068_] _1073_ d_lut_NAND2X1
ANAND2X1_39 [_1025_ _1008_] _1074_ d_lut_NAND2X1
ANOR2X1_27 [_1005__bF$buf2 _1074_] _1075_ d_lut_NOR2X1
ANAND2X1_40 [state_1_ _976_] _1076_ d_lut_NAND2X1
ANOR2X1_28 [_982_ _1076_] _1077_ d_lut_NOR2X1
AINVX1_19 [_1077__bF$buf3] _1078_ d_lut_INVX1
AOAI21X1_27 [_1005__bF$buf1 _1078_ RDY_bF$buf1] _1079_ d_lut_OAI21X1
AOAI21X1_28 [RDY_bF$buf0 _1075_ _1079_] _1080_ d_lut_OAI21X1
ANOR2X1_29 [_1000__bF$buf2 _1074_] _1081_ d_lut_NOR2X1
AOAI21X1_29 [_1000__bF$buf1 _1078_ RDY_bF$buf8] _1082_ d_lut_OAI21X1
AOAI21X1_30 [RDY_bF$buf7 _1081_ _1082_] _1083_ d_lut_OAI21X1
ANAND2X1_41 [_1080_ _1083_] _1084_ d_lut_NAND2X1
ANOR2X1_30 [_1084_ _1073_] _1085_ d_lut_NOR2X1
ANOR3X1_4 [state_2_ _981_ _992_] _1086_ d_lut_NOR3X1
ANAND2X1_42 [_990_ _1086_] _1087_ d_lut_NAND2X1
ANAND2X1_43 [state_3_ _1007_] _1088_ d_lut_NAND2X1
ANOR2X1_31 [_1076_ _1088_] _1089_ d_lut_NOR2X1
ANAND2X1_44 [_990_ _1089_] _1090_ d_lut_NAND2X1
AINVX1_20 [_1090_] _1091_ d_lut_INVX1
ANAND2X1_45 [RDY_bF$buf6 _1091_] _1092_ d_lut_NAND2X1
AOAI21X1_31 [RDY_bF$buf5 _1087_ _1092_] _1093_ d_lut_OAI21X1
ANAND3X1_9 [_1007_ state_3_ _1025_] _1094_ d_lut_NAND3X1
ANOR2X1_32 [_980__bF$buf0 _1094_] _1095_ d_lut_NOR2X1
AINVX1_21 [_1095_] _1096_ d_lut_INVX1
AINVX1_22 [state_1_] _1097_ d_lut_INVX1
ANOR2X1_33 [state_0_ _1097_] _1098_ d_lut_NOR2X1
ANOR2X1_34 [state_2_ _981_] _1099_ d_lut_NOR2X1
ANAND3X1_10 [_925__bF$buf1 _1098_ _1099_] _1100_ d_lut_NAND3X1
AMUX2X1_6 [_1096_ _1100__bF$buf3 _924__bF$buf3] _1101_ d_lut_MUX2X1
ANOR2X1_35 [_1101_ _1093_] _1102_ d_lut_NOR2X1
AOAI21X1_32 [_1005__bF$buf0 _1094_ _924__bF$buf2] _1103_ d_lut_OAI21X1
ANAND2X1_46 [_1098_ _1099_] _1104_ d_lut_NAND2X1
ANOR2X1_36 [_1005__bF$buf4 _1104_] _1105_ d_lut_NOR2X1
AOAI21X1_33 [_924__bF$buf1 _1105_ _1103_] _1106_ d_lut_OAI21X1
ANAND3X1_11 [_925__bF$buf0 _1008_ _1098_] _1107_ d_lut_NAND3X1
AXOR2X1_1 [ALU.CO backwards] _1108_ d_lut_XOR2X1
AINVX1_23 [_1108_] _1109_ d_lut_INVX1
AOAI21X1_34 [_1107_ _1109_ RDY_bF$buf4] _1110_ d_lut_OAI21X1
ANOR2X1_37 [_980__bF$buf4 _1074_] _1111_ d_lut_NOR2X1
AOAI21X1_35 [RDY_bF$buf3 _1111_ _1110_] _1112_ d_lut_OAI21X1
AAND2X2_8 [_1112_ _1106_] _1113_ d_lut_AND2X2
AAND2X2_9 [_1102_ _1113_] _1114_ d_lut_AND2X2
ANOR2X1_38 [_1029_ _924__bF$buf0] _1115_ d_lut_NOR2X1
ANOR2X1_39 [_1000__bF$buf0 _1026_] _1116_ d_lut_NOR2X1
AAOI22X1_3 [_924__bF$buf7 _1116_ _1115_ _1033_] _1117_ d_lut_AOI22X1
ANOR2X1_40 [_1005__bF$buf3 _1026_] _1118_ d_lut_NOR2X1
ANAND3X1_12 [_976_ state_1_ _978_] _1119_ d_lut_NAND3X1
AOAI21X1_36 [_1005__bF$buf2 _1119_ RDY_bF$buf2] _1120_ d_lut_OAI21X1
AOAI21X1_37 [RDY_bF$buf1 _1118_ _1120_] _1121_ d_lut_OAI21X1
ANAND2X1_47 [_1121_ _1117_] _1122_ d_lut_NAND2X1
ANAND3X1_13 [_927_ _999_ _1098_] _1123_ d_lut_NAND3X1
AINVX1_24 [_1123_] _1124_ d_lut_INVX1
AOAI21X1_38 [_1005__bF$buf1 _1070_ _924__bF$buf6] _1125_ d_lut_OAI21X1
AOAI21X1_39 [_924__bF$buf5 _1124_ _1125_] _1126_ d_lut_OAI21X1
AOAI21X1_40 [_980__bF$buf3 _1026_ _924__bF$buf4] _1127_ d_lut_OAI21X1
ANOR2X1_41 [_980__bF$buf2 _1119_] _1128_ d_lut_NOR2X1
AOAI21X1_41 [_924__bF$buf3 _1128_ _1127_] _1129_ d_lut_OAI21X1
ANAND2X1_48 [_1129_ _1126_] _1130_ d_lut_NAND2X1
ANOR2X1_42 [_1130_ _1122_] _1131_ d_lut_NOR2X1
ANAND3X1_14 [_1085_ _1114_ _1131_] _1132_ d_lut_NAND3X1
ANOR2X1_43 [_1000__bF$buf4 _979__bF$buf0] _1133_ d_lut_NOR2X1
ANAND2X1_49 [_924__bF$buf2 _1133_] _1134_ d_lut_NAND2X1
ANAND2X1_50 [_939__bF$buf3 _970_] _1135_ d_lut_NAND2X1
ANAND2X1_51 [_1135_ _967_] _1136_ d_lut_NAND2X1
ANOR2X1_44 [_1046_ _1136_] _1137_ d_lut_NOR2X1
AINVX4_3 [DIMUX_3_] _1138_ d_lut_INVX4
AOAI21X1_42 [_930_ IRHOLD_3_ _939__bF$buf2] _1139_ d_lut_OAI21X1
AAOI21X1_7 [_930_ _1138_ _1139_] _1140_ d_lut_AOI21X1
ANAND2X1_52 [_1066_ _1140_] _1141_ d_lut_NAND2X1
AOAI21X1_43 [_953__bF$buf3 _960_ _957_] _1142_ d_lut_OAI21X1
ANOR2X1_45 [_1141_ _1142_] _1143_ d_lut_NOR2X1
ANAND3X1_15 [_929__bF$buf1 _1137_ _1143_] _1144_ d_lut_NAND3X1
AAND2X2_10 [_1144_ _1134_] _1145_ d_lut_AND2X2
ANAND3X1_16 [_925__bF$buf5 _977_ _1008_] _1146_ d_lut_NAND3X1
AINVX1_25 [_1146_] _1147_ d_lut_INVX1
ANOR2X1_46 [_967_ _1039_] _1148_ d_lut_NOR2X1
AAOI22X1_4 [_924__bF$buf1 _1147_ _929__bF$buf0 _1148_] _1149_ d_lut_AOI22X1
ANAND3X1_17 [_978_ _926_ _987_] _1150_ d_lut_NAND3X1
AINVX1_26 [_1150_] _1151_ d_lut_INVX1
AOAI21X1_44 [_988_ _979__bF$buf3 _924__bF$buf0] _1152_ d_lut_OAI21X1
AOAI21X1_45 [_924__bF$buf7 _1151_ _1152_] _1153_ d_lut_OAI21X1
ANAND2X1_53 [_978_ _926_] _1154_ d_lut_NAND2X1
ANOR2X1_47 [_1005__bF$buf0 _1154_] _1155_ d_lut_NOR2X1
AOAI21X1_46 [_1005__bF$buf4 _979__bF$buf2 _924__bF$buf6] _1156_ d_lut_OAI21X1
AOAI21X1_47 [_924__bF$buf5 _1155_ _1156_] _1157_ d_lut_OAI21X1
ANAND2X1_54 [_1157_ _1153_] _1158_ d_lut_NAND2X1
AINVX1_27 [_1158_] _1159_ d_lut_INVX1
ANAND2X1_55 [_977_ _1099_] _1160_ d_lut_NAND2X1
AOAI21X1_48 [_1000__bF$buf3 _1160_ _924__bF$buf4] _1161_ d_lut_OAI21X1
ANAND3X1_18 [_1007_ state_3_ _926_] _1162_ d_lut_NAND3X1
ANOR2X1_48 [_1000__bF$buf2 _1162_] _1163_ d_lut_NOR2X1
AOAI21X1_49 [_924__bF$buf3 _1163_ _1161_] _1164_ d_lut_OAI21X1
ANOR2X1_49 [_980__bF$buf1 _1160_] _1165_ d_lut_NOR2X1
ANOR2X1_50 [RDY_bF$buf0 _1165_] _1166_ d_lut_NOR2X1
ANOR2X1_51 [_983_ _1088_] _1167_ d_lut_NOR2X1
AAOI21X1_8 [_1167_ _925__bF$buf4 _924__bF$buf2] _1168_ d_lut_AOI21X1
AOAI21X1_50 [_1168_ _1166_ _1164_] _1169_ d_lut_OAI21X1
ANAND3X1_19 [_978_ _925__bF$buf3 _926_] _1170_ d_lut_NAND3X1
AINVX1_28 [_1170_] _1171_ d_lut_INVX1
AOAI21X1_51 [_980__bF$buf0 _979__bF$buf1 _924__bF$buf1] _1172_ d_lut_OAI21X1
AOAI21X1_52 [_924__bF$buf0 _1171_ _1172_] _1173_ d_lut_OAI21X1
AOAI21X1_53 [_1005__bF$buf3 _1160_ _924__bF$buf7] _1174_ d_lut_OAI21X1
ANOR2X1_52 [_1005__bF$buf2 _1162_] _1175_ d_lut_NOR2X1
AOAI21X1_54 [_924__bF$buf6 _1175_ _1174_] _1176_ d_lut_OAI21X1
ANAND2X1_56 [_999_ _1017_] _1177_ d_lut_NAND2X1
ANAND3X1_20 [_1173_ _1176_ _1177_] _1178_ d_lut_NAND3X1
ANOR2X1_53 [_1178_ _1169_] _1179_ d_lut_NOR2X1
AAND2X2_11 [_1179_ _1159_] _1180_ d_lut_AND2X2
ANAND3X1_21 [_1149_ _1180_ _1145_] _1181_ d_lut_NAND3X1
ANOR3X1_5 [_1181_ _1132_ _1062_] _1182_ d_lut_NOR3X1
AINVX1_29 [_1182_] _919_ d_lut_INVX1
AINVX1_30 [_1132_] _1183_ d_lut_INVX1
ANAND2X1_57 [_967_ _1046_] _1184_ d_lut_NAND2X1
ANOR2X1_54 [_971_ _1184_] _1185_ d_lut_NOR2X1
ANAND3X1_22 [_929__bF$buf4 _1185_ _1143_] _1186_ d_lut_NAND3X1
ANAND2X1_58 [_924__bF$buf5 _1124_] _1187_ d_lut_NAND2X1
AOAI21X1_55 [_1000__bF$buf1 _1001_ _924__bF$buf4] _1188_ d_lut_OAI21X1
AOAI21X1_56 [_924__bF$buf3 _1116_ _1188_] _1189_ d_lut_OAI21X1
ANAND3X1_23 [_1187_ _1189_ _1186_] _1190_ d_lut_NAND3X1
ANOR2X1_55 [_1066_ _961_] _1191_ d_lut_NOR2X1
ANAND3X1_24 [_1140_ _957_ _1191_] _1192_ d_lut_NAND3X1
ANOR2X1_56 [_1053_ _1192_] _1193_ d_lut_NOR2X1
ANAND2X1_59 [_999_ _1077__bF$buf2] _1194_ d_lut_NAND2X1
ANOR2X1_57 [_1005__bF$buf1 _1160_] _1195_ d_lut_NOR2X1
AOAI21X1_57 [_1095_ _1195_ RDY_bF$buf8] _1196_ d_lut_OAI21X1
AOAI21X1_58 [RDY_bF$buf7 _1194_ _1196_] _1197_ d_lut_OAI21X1
AAOI21X1_9 [_1193_ _929__bF$buf3 _1197_] _1198_ d_lut_AOI21X1
ANOR2X1_58 [_980__bF$buf4 _1001_] _1199_ d_lut_NOR2X1
ANAND2X1_60 [_924__bF$buf2 _1199_] _1200_ d_lut_NAND2X1
ANAND2X1_61 [_964_ _962_] _1201_ d_lut_NAND2X1
ANOR2X1_59 [_941_ _1201_] _1202_ d_lut_NOR2X1
ANAND2X1_62 [_929__bF$buf2 _1202_] _1203_ d_lut_NAND2X1
ANAND3X1_25 [_1200_ _1203_ _1198_] _1204_ d_lut_NAND3X1
AOR2X2_4 [_1045_ _953__bF$buf2] _1205_ d_lut_OR2X2
ANOR2X1_60 [_941_ _1205_] _1206_ d_lut_NOR2X1
ANAND2X1_63 [_1135_ _1051_] _1207_ d_lut_NAND2X1
AINVX1_31 [_1207_] _1208_ d_lut_INVX1
ANAND2X1_64 [_1208_ _1206_] _1209_ d_lut_NAND2X1
ANOR2X1_61 [_1039_ _1209_] _1210_ d_lut_NOR2X1
AAOI22X1_5 [_924__bF$buf1 _1105_ _929__bF$buf1 _1210_] _1211_ d_lut_AOI22X1
ANOR2X1_62 [_1051_ _971_] _1212_ d_lut_NOR2X1
ANAND2X1_65 [_1212_ _1206_] _1213_ d_lut_NAND2X1
ANOR2X1_63 [_1039_ _1213_] _1214_ d_lut_NOR2X1
AAOI22X1_6 [_924__bF$buf0 _1091_ _929__bF$buf0 _1214_] _1215_ d_lut_AOI22X1
ANOR2X1_64 [_924__bF$buf7 _1146_] _1216_ d_lut_NOR2X1
AINVX1_32 [Z] _1217_ d_lut_INVX1
ANAND2X1_66 [cond_code_1_ _1217_] _1218_ d_lut_NAND2X1
AOAI21X1_59 [cond_code_1_ C _1218_] _1219_ d_lut_OAI21X1
AINVX1_33 [V] _1220_ d_lut_INVX1
ANAND2X1_67 [cond_code_1_ _1220_] _1221_ d_lut_NAND2X1
AOAI21X1_60 [N cond_code_1_ _1221_] _1222_ d_lut_OAI21X1
AMUX2X1_7 [_1219_ _1222_ cond_code_2_] _1223_ d_lut_MUX2X1
AXNOR2X1_1 [_1223_ cond_code_0_] _1224_ d_lut_XNOR2X1
AOAI21X1_61 [_1000__bF$buf0 _1078_ _924__bF$buf6] _1225_ d_lut_OAI21X1
AOAI21X1_62 [_924__bF$buf5 _1056_ _1225_] _1226_ d_lut_OAI21X1
AOAI21X1_63 [RDY_bF$buf6 _1107_ _1226_] _1227_ d_lut_OAI21X1
AAOI21X1_10 [_1224_ _1216_ _1227_] _1228_ d_lut_AOI21X1
ANAND3X1_26 [_1228_ _1211_ _1215_] _1229_ d_lut_NAND3X1
ANOR3X1_6 [_1190_ _1204_ _1229_] _1230_ d_lut_NOR3X1
ANOR2X1_65 [_1005__bF$buf0 _1119_] _1231_ d_lut_NOR2X1
ANOR2X1_66 [_967_ _1201_] _1232_ d_lut_NOR2X1
AAOI22X1_7 [_924__bF$buf4 _1231_ _929__bF$buf4 _1232_] _1233_ d_lut_AOI22X1
ANAND2X1_68 [state_0_ _1097_] _1234_ d_lut_NAND2X1
ANOR2X1_67 [_1234_ _1088_] _1235_ d_lut_NOR2X1
ANAND2X1_69 [_925__bF$buf2 _1235_] _1236_ d_lut_NAND2X1
AINVX2_8 [_1100__bF$buf2] _1237_ d_lut_INVX2
ANAND2X1_70 [_924__bF$buf3 _1237_] _1238_ d_lut_NAND2X1
AOAI21X1_64 [_924__bF$buf2 _1236_ _1238_] _1239_ d_lut_OAI21X1
AINVX1_34 [_1128_] _1240_ d_lut_INVX1
ANOR2X1_68 [_1000__bF$buf4 _1119_] _1241_ d_lut_NOR2X1
AOAI21X1_65 [_1000__bF$buf3 _979__bF$buf0 RDY_bF$buf5] _1242_ d_lut_OAI21X1
AOAI21X1_66 [RDY_bF$buf4 _1241_ _1242_] _1243_ d_lut_OAI21X1
AOAI21X1_67 [RDY_bF$buf3 _1240_ _1243_] _1244_ d_lut_OAI21X1
AOR2X2_5 [_1244_ _1239_] _1245_ d_lut_OR2X2
AOAI21X1_68 [_953__bF$buf1 _956_ _961_] _1246_ d_lut_OAI21X1
ANAND2X1_71 [_951_ _1140_] _1247_ d_lut_NAND2X1
AOAI21X1_69 [_1246_ _1141_ _1247_] _1248_ d_lut_OAI21X1
ANOR2X1_69 [_967_ _1065__bF$buf2] _1249_ d_lut_NOR2X1
AAOI21X1_11 [_1248_ _1249_ _1245_] _1250_ d_lut_AOI21X1
AAND2X2_12 [_1233_ _1250_] _1251_ d_lut_AND2X2
ANAND3X1_27 [_1183_ _1251_ _1230_] _920_ d_lut_NAND3X1
ANAND2X1_72 [_926_ _1008_] _1252_ d_lut_NAND2X1
AOAI21X1_70 [_1005__bF$buf4 _1252_ _924__bF$buf1] _1253_ d_lut_OAI21X1
AOAI21X1_71 [_924__bF$buf0 _1118_ _1253_] _1254_ d_lut_OAI21X1
ANOR2X1_70 [_924__bF$buf7 _1033_] _1255_ d_lut_NOR2X1
AOR2X2_6 [state_2_ state_3_] _1256_ d_lut_OR2X2
ANOR2X1_71 [_1256_ _1076_] _1258_ d_lut_NOR2X1
AOAI21X1_72 [_1258_ _1235_ _990_] _1259_ d_lut_OAI21X1
AOAI21X1_73 [state_5_ _1074_ _1259_] _1260_ d_lut_OAI21X1
ANOR2X1_72 [_1000__bF$buf2 _1154_] _1261_ d_lut_NOR2X1
ANOR2X1_73 [_1000__bF$buf1 _1252_] _1262_ d_lut_NOR2X1
ANOR2X1_74 [_1261_ _1262_] _1263_ d_lut_NOR2X1
AOAI21X1_74 [_980__bF$buf3 _1014_ _1263_] _1264_ d_lut_OAI21X1
AOAI21X1_75 [_1260_ _1264_ _1255_] _1265_ d_lut_OAI21X1
AINVX1_35 [_1224_] _1266_ d_lut_INVX1
AINVX8_4 [_1107_] _1267_ d_lut_INVX8
ANAND3X1_28 [RDY_bF$buf2 _1109_ _1267_] _1268_ d_lut_NAND3X1
AOAI21X1_76 [RDY_bF$buf1 _928__bF$buf3 _1268_] _1269_ d_lut_OAI21X1
AAOI21X1_12 [_1266_ _1216_ _1269_] _1270_ d_lut_AOI21X1
AAND2X2_13 [_1265_ _1270_] _1271_ d_lut_AND2X2
AAOI21X1_13 [_1053_ _967_ _1039_] _1272_ d_lut_AOI21X1
ANAND2X1_73 [_1137_ _1143_] _1273_ d_lut_NAND2X1
AOAI21X1_77 [_967_ _1201_ _1273_] _1274_ d_lut_OAI21X1
ANOR2X1_75 [_1272_ _1274_] _1275_ d_lut_NOR2X1
ANAND2X1_74 [_1185_ _1143_] _1276_ d_lut_NAND2X1
AOAI21X1_78 [_1039_ _1213_ _1276_] _1277_ d_lut_OAI21X1
ANAND2X1_75 [_1066_ _947_] _1278_ d_lut_NAND2X1
ANOR2X1_76 [_1246_ _1278_] _1279_ d_lut_NOR2X1
ANAND2X1_76 [_967_ _1279_] _1280_ d_lut_NAND2X1
AOAI21X1_79 [_1192_ _1213_ _1280_] _1281_ d_lut_OAI21X1
ANOR2X1_77 [_1281_ _1277_] _1282_ d_lut_NOR2X1
ANOR2X1_78 [_1246_ _1141_] _1283_ d_lut_NOR2X1
AAOI22X1_8 [_964_ _973_ _967_ _1283_] _1284_ d_lut_AOI22X1
AOAI21X1_80 [_1066_ _1140_ _929__bF$buf3] _1285_ d_lut_OAI21X1
AINVX1_36 [_1285_] _1286_ d_lut_INVX1
ANAND2X1_77 [_1286_ _1284_] _1287_ d_lut_NAND2X1
AAOI21X1_14 [_941_ _1248_ _1287_] _1288_ d_lut_AOI21X1
ANAND3X1_29 [_1275_ _1282_ _1288_] _1289_ d_lut_NAND3X1
ANOR2X1_79 [_1247_ _1142_] _1290_ d_lut_NOR2X1
AOAI21X1_81 [_1207_ _1184_ _972_] _1291_ d_lut_OAI21X1
AOAI21X1_82 [_953__bF$buf0 _960_ _1037_] _1292_ d_lut_OAI21X1
ANAND2X1_78 [_1246_ _1292_] _1293_ d_lut_NAND2X1
ANOR2X1_80 [_941_ _1247_] _1294_ d_lut_NOR2X1
AAND2X2_14 [_1294_ _1293_] _1295_ d_lut_AND2X2
AAOI21X1_15 [_1290_ _1291_ _1295_] _1296_ d_lut_AOI21X1
ANOR2X1_81 [_1292_ _1141_] _1297_ d_lut_NOR2X1
AAOI21X1_16 [_1143_ _1136_ _1297_] _1298_ d_lut_AOI21X1
AOAI21X1_83 [_953__bF$buf4 _1045_ _967_] _1299_ d_lut_OAI21X1
AINVX1_37 [_1299_] _1300_ d_lut_INVX1
ANAND2X1_79 [_1208_ _1300_] _1301_ d_lut_NAND2X1
ANOR2X1_82 [_1039_ _1301_] _1302_ d_lut_NOR2X1
AINVX2_9 [DIMUX_6_] _1303_ d_lut_INVX2
AOAI21X1_84 [_930_ IRHOLD_6_ _939__bF$buf1] _1304_ d_lut_OAI21X1
AAOI21X1_17 [_930_ _1303_ _1304_] _1305_ d_lut_AOI21X1
ANAND2X1_80 [_1135_ _1305_] _1306_ d_lut_NAND2X1
ANOR2X1_83 [_1299_ _1306_] _1307_ d_lut_NOR2X1
ANAND2X1_81 [_1307_ _1290_] _1308_ d_lut_NAND2X1
AOAI21X1_85 [_1039_ _1209_ _1308_] _1309_ d_lut_OAI21X1
ANOR2X1_84 [_1302_ _1309_] _1310_ d_lut_NOR2X1
ANAND3X1_30 [_1296_ _1298_ _1310_] _1311_ d_lut_NAND3X1
AOAI21X1_86 [_1311_ _1289_ _1271_] _1312_ d_lut_OAI21X1
ANAND2X1_82 [_926_ _927_] _1313_ d_lut_NAND2X1
ANOR2X1_85 [_1000__bF$buf0 _1313_] _1314_ d_lut_NOR2X1
AOAI21X1_87 [_1000__bF$buf4 _1094_ RDY_bF$buf0] _1315_ d_lut_OAI21X1
AOAI21X1_88 [RDY_bF$buf8 _1314_ _1315_] _1316_ d_lut_OAI21X1
ANOR2X1_86 [_1005__bF$buf3 _1313_] _1317_ d_lut_NOR2X1
AOAI21X1_89 [_1005__bF$buf2 _1094_ RDY_bF$buf7] _1318_ d_lut_OAI21X1
AOAI21X1_90 [RDY_bF$buf6 _1317_ _1318_] _1319_ d_lut_OAI21X1
ANAND2X1_83 [_1319_ _1316_] _1320_ d_lut_NAND2X1
ANOR2X1_87 [_1320_ _1312_] _1321_ d_lut_NOR2X1
AOR2X2_7 [_1204_ _1190_] _1322_ d_lut_OR2X2
ANAND2X1_84 [_924__bF$buf6 _1262_] _1323_ d_lut_NAND2X1
AOAI21X1_91 [_1065__bF$buf1 _1298_ _1323_] _1324_ d_lut_OAI21X1
AINVX1_38 [_985_] _1325_ d_lut_INVX1
ANAND2X1_85 [write_back RDY_bF$buf5] _1326_ d_lut_NAND2X1
AAOI21X1_18 [_1059_ _1326_ _1028_] _1327_ d_lut_AOI21X1
AAOI21X1_19 [_1325_ _924__bF$buf5 _1327_] _1328_ d_lut_AOI21X1
AINVX1_39 [_1328_] _1329_ d_lut_INVX1
ANOR2X1_88 [_1329_ _1324_] _1330_ d_lut_NOR2X1
AAND2X2_15 [_1112_ _1177_] _1331_ d_lut_AND2X2
AAND2X2_16 [_1331_ _1126_] _1332_ d_lut_AND2X2
AAND2X2_17 [_1332_ _1228_] _1333_ d_lut_AND2X2
AAND2X2_18 [_1333_ _1149_] _1334_ d_lut_AND2X2
ANAND3X1_31 [_1085_ _1334_ _1330_] _1335_ d_lut_NAND3X1
ANOR3X1_7 [_1062_ _1322_ _1335_] _1336_ d_lut_NOR3X1
ANAND3X1_32 [_1254_ _1336_ _1321_] _921_ d_lut_NAND3X1
AAOI22X1_9 [_1143_ _1185_ _941_ _1248_] _1337_ d_lut_AOI22X1
ANAND3X1_33 [_1284_ _1298_ _1337_] _1338_ d_lut_NAND3X1
AINVX1_40 [_1338_] _1339_ d_lut_INVX1
ANOR2X1_89 [_1278_ _1142_] _1340_ d_lut_NOR2X1
ANOR2X1_90 [_1184_ _1306_] _1341_ d_lut_NOR2X1
ANAND2X1_86 [_1341_ _1340_] _1342_ d_lut_NAND2X1
ANAND3X1_34 [_1280_ _1308_ _1342_] _1343_ d_lut_NAND3X1
AINVX1_41 [_1272_] _1344_ d_lut_INVX1
AAOI21X1_20 [_1143_ _1137_ _1285_] _1345_ d_lut_AOI21X1
ANAND2X1_87 [_1345_ _1344_] _1346_ d_lut_NAND2X1
ANOR3X1_8 [_1210_ _1343_ _1346_] _1347_ d_lut_NOR3X1
ANAND2X1_88 [_1341_ _1290_] _1348_ d_lut_NAND2X1
ANOR2X1_91 [_1302_ _1232_] _1349_ d_lut_NOR2X1
ANAND3X1_35 [_1348_ _1296_ _1349_] _1350_ d_lut_NAND3X1
AINVX1_42 [_1350_] _1351_ d_lut_INVX1
ANAND3X1_36 [_1339_ _1347_ _1351_] _1352_ d_lut_NAND3X1
AINVX1_43 [_1254_] _1353_ d_lut_INVX1
ANOR2X1_92 [_1320_ _1353_] _1354_ d_lut_NOR2X1
ANAND3X1_37 [_1271_ _1354_ _1352_] _1355_ d_lut_NAND3X1
ANAND2X1_89 [_1038_ _952_] _1356_ d_lut_NAND2X1
ANOR2X1_93 [_1042_ _1356_] _1357_ d_lut_NOR2X1
AOAI21X1_92 [_1297_ _1357_ _929__bF$buf2] _1358_ d_lut_OAI21X1
ANAND3X1_38 [_1323_ _1328_ _1358_] _1359_ d_lut_NAND3X1
ANOR2X1_94 [_1066_ _1140_] _1360_ d_lut_NOR2X1
AAOI22X1_10 [_924__bF$buf4 _1151_ _1249_ _1360_] _1361_ d_lut_AOI22X1
AOAI21X1_93 [_980__bF$buf2 _1070_ RDY_bF$buf4] _1362_ d_lut_OAI21X1
AOAI21X1_94 [RDY_bF$buf3 _1155_ _1362_] _1363_ d_lut_OAI21X1
ANAND2X1_90 [_1363_ _1361_] _1364_ d_lut_NAND2X1
AOAI21X1_95 [_1005__bF$buf1 _1070_ RDY_bF$buf2] _1365_ d_lut_OAI21X1
AOAI21X1_96 [RDY_bF$buf1 _1261_ _1365_] _1366_ d_lut_OAI21X1
AOAI21X1_97 [RDY_bF$buf0 _1170_ _1366_] _1367_ d_lut_OAI21X1
ANOR2X1_95 [_1367_ _1364_] _1368_ d_lut_NOR2X1
ANAND3X1_39 [_1250_ _1368_ _1233_] _1369_ d_lut_NAND3X1
ANAND3X1_40 [_929__bF$buf1 _1341_ _1290_] _1370_ d_lut_NAND3X1
ANAND2X1_91 [_924__bF$buf3 _1175_] _1372_ d_lut_NAND2X1
AAND2X2_19 [_1370_ _1372_] _1373_ d_lut_AND2X2
AOAI21X1_98 [_1000__bF$buf3 _1074_ RDY_bF$buf8] _1374_ d_lut_OAI21X1
AOAI21X1_99 [RDY_bF$buf7 _1163_ _1374_] _1375_ d_lut_OAI21X1
AAND2X2_20 [_1290_ _1291_] _1376_ d_lut_AND2X2
AOAI21X1_100 [_1295_ _1376_ _929__bF$buf0] _1377_ d_lut_OAI21X1
ANAND3X1_41 [_1373_ _1375_ _1377_] _1378_ d_lut_NAND3X1
ANOR3X1_9 [_1359_ _1369_ _1378_] _1379_ d_lut_NOR3X1
ANAND3X1_42 [_1230_ _1379_ _1182_] _1380_ d_lut_NAND3X1
AOAI21X1_101 [_1065__bF$buf0 _1280_ _1200_] _1381_ d_lut_OAI21X1
ANOR3X1_10 [_1239_ _1320_ _1169_] _1382_ d_lut_NOR3X1
ANAND2X1_92 [_1126_ _1106_] _1383_ d_lut_NAND2X1
ANAND2X1_93 [_1176_ _1177_] _1384_ d_lut_NAND2X1
ANOR2X1_96 [_1384_ _1383_] _1385_ d_lut_NOR2X1
ANAND3X1_43 [_1102_ _1385_ _1382_] _1386_ d_lut_NAND3X1
ANOR3X1_11 [_1073_ _1386_ _1381_] _1387_ d_lut_NOR3X1
ANAND2X1_94 [_1211_ _1215_] _1389_ d_lut_NAND2X1
ANOR2X1_97 [_1190_ _1389_] _1390_ d_lut_NOR2X1
ANOR2X1_98 [_1065__bF$buf3 _1284_] _1391_ d_lut_NOR2X1
ANAND3X1_44 [_1372_ _1375_ _1370_] _1392_ d_lut_NAND3X1
ANOR3X1_12 [_1035_ _1392_ _1391_] _1393_ d_lut_NOR3X1
ANAND3X1_45 [_1387_ _1393_ _1390_] _1394_ d_lut_NAND3X1
ANOR2X1_99 [_1394_ _1312_] _1396_ d_lut_NOR2X1