*SPICE netlist created from BLIF module cpu by blif2BSpice
.include /usr/local/share/qflow/tech/osu035/osu035_stdcells.sp
.subckt cpu vdd gnd clk reset DI<0> DI<1> DI<2> DI<3> DI<4> DI<5> DI<6> DI<7> IRQ NMI RDY AB<0> AB<1> AB<2> AB<3> AB<4> AB<5> AB<6> AB<7> AB<8> AB<9> AB<10> AB<11> AB<12> AB<13> AB<14> AB<15> DO<0> DO<1> DO<2> DO<3> DO<4> DO<5> DO<6> DO<7> WE 
XBUFX4_1 vdd gnd RDY RDY_bF$buf8 BUFX4
XBUFX4_2 vdd gnd RDY RDY_bF$buf7 BUFX4
XBUFX4_3 vdd gnd RDY RDY_bF$buf6 BUFX4
XBUFX4_4 vdd gnd RDY RDY_bF$buf5 BUFX4
XBUFX4_5 vdd gnd RDY RDY_bF$buf4 BUFX4
XBUFX4_6 vdd gnd RDY RDY_bF$buf3 BUFX4
XBUFX4_7 vdd gnd RDY RDY_bF$buf2 BUFX4
XBUFX4_8 vdd gnd RDY RDY_bF$buf1 BUFX4
XBUFX4_9 vdd gnd RDY RDY_bF$buf0 BUFX4
XBUFX4_10 vdd gnd _799_ _799__bF$buf4 BUFX4
XBUFX4_11 vdd gnd _799_ _799__bF$buf3 BUFX4
XBUFX4_12 vdd gnd _799_ _799__bF$buf2 BUFX4
XBUFX4_13 vdd gnd _799_ _799__bF$buf1 BUFX4
XBUFX4_14 vdd gnd _799_ _799__bF$buf0 BUFX4
XBUFX4_15 vdd gnd clk clk_bF$buf11 BUFX4
XBUFX4_16 vdd gnd clk clk_bF$buf10 BUFX4
XBUFX4_17 vdd gnd clk clk_bF$buf9 BUFX4
XBUFX4_18 vdd gnd clk clk_bF$buf8 BUFX4
XBUFX4_19 vdd gnd clk clk_bF$buf7 BUFX4
XBUFX4_20 vdd gnd clk clk_bF$buf6 BUFX4
XBUFX4_21 vdd gnd clk clk_bF$buf5 BUFX4
XBUFX4_22 vdd gnd clk clk_bF$buf4 BUFX4
XBUFX4_23 vdd gnd clk clk_bF$buf3 BUFX4
XBUFX4_24 vdd gnd clk clk_bF$buf2 BUFX4
XBUFX4_25 vdd gnd clk clk_bF$buf1 BUFX4
XBUFX4_26 vdd gnd clk clk_bF$buf0 BUFX4
XBUFX4_27 vdd gnd _1101_ _1101__bF$buf3 BUFX4
XBUFX4_28 vdd gnd _1101_ _1101__bF$buf2 BUFX4
XBUFX4_29 vdd gnd _1101_ _1101__bF$buf1 BUFX4
XBUFX4_30 vdd gnd _1101_ _1101__bF$buf0 BUFX4
XBUFX4_31 vdd gnd _849_ _849__bF$buf4 BUFX4
XBUFX4_32 vdd gnd _849_ _849__bF$buf3 BUFX4
XBUFX4_33 vdd gnd _849_ _849__bF$buf2 BUFX4
XBUFX4_34 vdd gnd _849_ _849__bF$buf1 BUFX4
XBUFX4_35 vdd gnd _849_ _849__bF$buf0 BUFX4
XBUFX4_36 vdd gnd _825_ _825__bF$buf4 BUFX4
XBUFX4_37 vdd gnd _825_ _825__bF$buf3 BUFX4
XBUFX4_38 vdd gnd _825_ _825__bF$buf2 BUFX4
XBUFX4_39 vdd gnd _825_ _825__bF$buf1 BUFX4
XBUFX4_40 vdd gnd _825_ _825__bF$buf0 BUFX4
XBUFX2_1 vdd gnd _155_ _155__bF$buf3 BUFX2
XBUFX2_2 vdd gnd _155_ _155__bF$buf2 BUFX2
XBUFX2_3 vdd gnd _155_ _155__bF$buf1 BUFX2
XBUFX2_4 vdd gnd _155_ _155__bF$buf0 BUFX2
XBUFX4_41 vdd gnd _822_ _822__bF$buf4 BUFX4
XBUFX4_42 vdd gnd _822_ _822__bF$buf3 BUFX4
XBUFX4_43 vdd gnd _822_ _822__bF$buf2 BUFX4
XBUFX4_44 vdd gnd _822_ _822__bF$buf1 BUFX4
XBUFX4_45 vdd gnd _822_ _822__bF$buf0 BUFX4
XBUFX4_46 vdd gnd _152_ _152__bF$buf3 BUFX4
XBUFX4_47 vdd gnd _152_ _152__bF$buf2 BUFX4
XBUFX2_5 vdd gnd _152_ _152__bF$buf1 BUFX2
XBUFX2_6 vdd gnd _152_ _152__bF$buf0 BUFX2
XBUFX4_48 vdd gnd _795_ _795__bF$buf4 BUFX4
XBUFX4_49 vdd gnd _795_ _795__bF$buf3 BUFX4
XBUFX4_50 vdd gnd _795_ _795__bF$buf2 BUFX4
XBUFX4_51 vdd gnd _795_ _795__bF$buf1 BUFX4
XBUFX4_52 vdd gnd _795_ _795__bF$buf0 BUFX4
XBUFX4_53 vdd gnd _651_ _651__bF$buf4 BUFX4
XBUFX4_54 vdd gnd _651_ _651__bF$buf3 BUFX4
XBUFX4_55 vdd gnd _651_ _651__bF$buf2 BUFX4
XBUFX4_56 vdd gnd _651_ _651__bF$buf1 BUFX4
XBUFX4_57 vdd gnd _651_ _651__bF$buf0 BUFX4
XBUFX4_58 vdd gnd _1070_ _1070__bF$buf4 BUFX4
XBUFX4_59 vdd gnd _1070_ _1070__bF$buf3 BUFX4
XBUFX4_60 vdd gnd _1070_ _1070__bF$buf2 BUFX4
XBUFX4_61 vdd gnd _1070_ _1070__bF$buf1 BUFX4
XBUFX4_62 vdd gnd _1070_ _1070__bF$buf0 BUFX4
XBUFX2_7 vdd gnd _830_ _830__bF$buf3 BUFX2
XBUFX2_8 vdd gnd _830_ _830__bF$buf2 BUFX2
XBUFX2_9 vdd gnd _830_ _830__bF$buf1 BUFX2
XBUFX2_10 vdd gnd _830_ _830__bF$buf0 BUFX2
XBUFX4_63 vdd gnd _1631_ _1631__bF$buf3 BUFX4
XBUFX4_64 vdd gnd _1631_ _1631__bF$buf2 BUFX4
XBUFX4_65 vdd gnd _1631_ _1631__bF$buf1 BUFX4
XBUFX4_66 vdd gnd _1631_ _1631__bF$buf0 BUFX4
XBUFX4_67 vdd gnd _1017_ _1017__bF$buf7 BUFX4
XBUFX4_68 vdd gnd _1017_ _1017__bF$buf6 BUFX4
XBUFX4_69 vdd gnd _1017_ _1017__bF$buf5 BUFX4
XBUFX4_70 vdd gnd _1017_ _1017__bF$buf4 BUFX4
XBUFX4_71 vdd gnd _1017_ _1017__bF$buf3 BUFX4
XBUFX4_72 vdd gnd _1017_ _1017__bF$buf2 BUFX4
XBUFX4_73 vdd gnd _1017_ _1017__bF$buf1 BUFX4
XBUFX4_74 vdd gnd _1017_ _1017__bF$buf0 BUFX4
XBUFX4_75 vdd gnd _859_ _859__bF$buf3 BUFX4
XBUFX4_76 vdd gnd _859_ _859__bF$buf2 BUFX4
XBUFX2_11 vdd gnd _859_ _859__bF$buf1 BUFX2
XBUFX2_12 vdd gnd _859_ _859__bF$buf0 BUFX2
XBUFX4_77 vdd gnd _148_ _148__bF$buf3 BUFX4
XBUFX2_13 vdd gnd _148_ _148__bF$buf2 BUFX2
XBUFX2_14 vdd gnd _148_ _148__bF$buf1 BUFX2
XBUFX2_15 vdd gnd _148_ _148__bF$buf0 BUFX2
XBUFX4_78 vdd gnd _815_ _815__bF$buf3 BUFX4
XBUFX4_79 vdd gnd _815_ _815__bF$buf2 BUFX4
XBUFX4_80 vdd gnd _815_ _815__bF$buf1 BUFX4
XBUFX4_81 vdd gnd _815_ _815__bF$buf0 BUFX4
XBUFX4_82 vdd gnd _812_ _812__bF$buf3 BUFX4
XBUFX2_16 vdd gnd _812_ _812__bF$buf2 BUFX2
XBUFX4_83 vdd gnd _812_ _812__bF$buf1 BUFX4
XBUFX4_84 vdd gnd _812_ _812__bF$buf0 BUFX4
XBUFX4_85 vdd gnd _809_ _809__bF$buf4 BUFX4
XBUFX4_86 vdd gnd _809_ _809__bF$buf3 BUFX4
XBUFX4_87 vdd gnd _809_ _809__bF$buf2 BUFX4
XBUFX4_88 vdd gnd _809_ _809__bF$buf1 BUFX4
XBUFX4_89 vdd gnd _809_ _809__bF$buf0 BUFX4
XINVX1_1 PC<13> _787_ vdd gnd INVX1
XNAND2X1_1 vdd _788_ gnd state<0> state<1> NAND2X1
XINVX2_1 vdd gnd _789_ _788_ INVX2
XINVX1_2 state<2> _790_ vdd gnd INVX1
XNOR2X1_1 vdd _790_ gnd _791_ state<3> NOR2X1
XNAND2X1_2 vdd _792_ gnd _789_ _791_ NAND2X1
XINVX1_3 state<4> _793_ vdd gnd INVX1
XNOR2X1_2 vdd _793_ gnd _794_ state<5> NOR2X1
XINVX8_1 vdd gnd _794_ _795_ INVX8
XNOR2X1_3 vdd _792_ gnd _796_ _795__bF$buf2 NOR2X1
XINVX1_4 state<5> _797_ vdd gnd INVX1
XNOR2X1_4 vdd _797_ gnd _798_ state<4> NOR2X1
XINVX8_2 vdd gnd _798_ _799_ INVX8
XINVX1_5 state<0> _800_ vdd gnd INVX1
XNOR2X1_5 vdd _800_ gnd _801_ state<1> NOR2X1
XAND2X2_1 vdd gnd state<2> state<3> _802_ AND2X2
XNAND2X1_3 vdd _803_ gnd _802_ _801_ NAND2X1
XINVX1_6 state<3> _804_ vdd gnd INVX1
XNOR2X1_6 vdd _804_ gnd _805_ state<2> NOR2X1
XNAND2X1_4 vdd _806_ gnd _801_ _805_ NAND2X1
XAOI22X1_1 gnd vdd _803_ _806_ _807_ _795__bF$buf2 _799__bF$buf1 AOI22X1
XNOR2X1_7 vdd _807_ gnd _808_ _796_ NOR2X1
XOR2X2_1 _809_ state<4> vdd gnd state<5> OR2X2
XNOR2X1_8 vdd state<1> gnd _810_ state<0> NOR2X1
XNAND2X1_5 vdd _811_ gnd _810_ _802_ NAND2X1
XNOR2X1_9 vdd state<4> gnd _812_ state<5> NOR2X1
XINVX1_7 state<1> _813_ vdd gnd INVX1
XNOR2X1_10 vdd _813_ gnd _814_ state<0> NOR2X1
XNAND3X1_1 _791_ vdd gnd _812__bF$buf0 _814_ _815_ NAND3X1
XOAI21X1_1 gnd vdd _809__bF$buf3 _811_ _816_ _815__bF$buf2 OAI21X1
XNAND3X1_2 _805_ vdd gnd _812__bF$buf1 _814_ _817_ NAND3X1
XOAI21X1_2 gnd vdd _809__bF$buf4 _792_ _818_ _817_ OAI21X1
XNOR2X1_11 vdd _818_ gnd _819_ _816_ NOR2X1
XNAND2X1_6 vdd _820_ gnd _808_ _819_ NAND2X1
XINVX1_8 _820_ _821_ vdd gnd INVX1
XNAND3X1_3 _810_ vdd gnd _812__bF$buf0 _802_ _822_ NAND3X1
XINVX1_9 IRQ _823_ vdd gnd INVX1
XINVX8_3 vdd gnd NMI_edge _824_ INVX8
XOAI21X1_3 gnd vdd I _823_ _825_ _824_ OAI21X1
XNOR2X1_12 vdd _822__bF$buf2 gnd _826_ _825__bF$buf4 NOR2X1
XOAI21X1_4 gnd vdd _826_ _821_ _827_ PC<13> OAI21X1
XINVX2_2 vdd gnd _828_ I INVX2
XNAND2X1_7 vdd _829_ gnd _823_ _824_ NAND2X1
XOAI21X1_5 gnd vdd _828_ NMI_edge _830_ _829_ OAI21X1
XNOR2X1_13 vdd _830__bF$buf0 gnd _831_ _822__bF$buf2 NOR2X1
XNAND2X1_8 vdd _832_ gnd ABH<5> _831_ NAND2X1
XNAND2X1_9 vdd _833_ gnd state<2> _804_ NAND2X1
XNOR2X1_14 vdd _833_ gnd _834_ _788_ NOR2X1
XNAND2X1_10 vdd _835_ gnd _794_ _834_ NAND2X1
XNAND2X1_11 vdd _836_ gnd state<0> _813_ NAND2X1
XNAND2X1_12 vdd _837_ gnd state<2> state<3> NAND2X1
XNOR2X1_15 vdd _836_ gnd _838_ _837_ NOR2X1
XOAI21X1_6 gnd vdd _794_ _798_ _839_ _838_ OAI21X1
XNAND2X1_13 vdd _840_ gnd state<3> _790_ NAND2X1
XNOR2X1_16 vdd _840_ gnd _841_ _836_ NOR2X1
XOAI21X1_7 gnd vdd _794_ _798_ _842_ _841_ OAI21X1
XNAND3X1_4 _839_ vdd gnd _835_ _842_ _843_ NAND3X1
XINVX1_10 DIHOLD<5> _844_ vdd gnd INVX1
XNAND2X1_14 vdd _845_ gnd RDY_bF$buf5 DI<5> NAND2X1
XOAI21X1_8 gnd vdd RDY_bF$buf5 _844_ DIMUX<5> _845_ OAI21X1
XINVX2_3 vdd gnd _846_ ADD<5> INVX2
XNAND3X1_5 _789_ vdd gnd _812__bF$buf1 _791_ _847_ NAND3X1
XNAND2X1_15 vdd _848_ gnd state<1> _800_ NAND2X1
XNOR3X1_1 vdd gnd _833_ _848_ _809__bF$buf4 _849_ NOR3X1
XNOR3X1_2 vdd gnd _840_ _848_ _809__bF$buf4 _850_ NOR3X1
XAOI21X1_1 gnd vdd _849__bF$buf2 ABH<5> _851_ _850_ AOI21X1
XOAI21X1_9 gnd vdd _846_ _847_ _852_ _851_ OAI21X1
XAOI21X1_2 gnd vdd _843_ DIMUX<5> _853_ _852_ AOI21X1
XNAND3X1_6 _853_ vdd gnd _832_ _827_ _854_ NAND3X1
XNAND3X1_7 _808_ vdd gnd PC<5> _819_ _855_ NAND3X1
XNOR2X1_17 vdd _848_ gnd _856_ _840_ NOR2X1
XAOI22X1_2 gnd vdd ADD<5> _849__bF$buf4 _857_ _812__bF$buf3 _856_ AOI22X1
XNAND3X1_8 _812__bF$buf3 vdd gnd PC<5> _834_ _858_ NAND3X1
XINVX8_4 vdd gnd _822__bF$buf2 _859_ INVX8
XINVX2_4 vdd gnd _860_ PC<5> INVX2
XNOR2X1_18 vdd _825__bF$buf2 gnd _861_ _860_ NOR2X1
XINVX1_11 ABL<5> _862_ vdd gnd INVX1
XNAND2X1_16 vdd _863_ gnd IRQ _828_ NAND2X1
XAOI21X1_3 gnd vdd _863_ _824_ _864_ _862_ AOI21X1
XOAI21X1_10 gnd vdd _864_ _861_ _865_ _859__bF$buf3 OAI21X1
XNAND3X1_9 _865_ vdd gnd _858_ _857_ _866_ NAND3X1
XAOI21X1_4 gnd vdd ADD<5> _843_ _867_ _866_ AOI21X1
XNAND3X1_10 _808_ vdd gnd PC<4> _819_ _868_ NAND3X1
XAOI21X1_5 gnd vdd _849__bF$buf0 ADD<4> _869_ _850_ AOI21X1
XINVX4_1 vdd gnd _870_ _847_ INVX4
XNAND2X1_17 vdd _871_ gnd PC<4> _870_ NAND2X1
XINVX2_5 vdd gnd _872_ PC<4> INVX2
XNOR2X1_19 vdd _825__bF$buf2 gnd _873_ _872_ NOR2X1
XINVX1_12 ABL<4> _874_ vdd gnd INVX1
XAOI21X1_6 gnd vdd _863_ _824_ _875_ _874_ AOI21X1
XOAI21X1_11 gnd vdd _875_ _873_ _876_ _859__bF$buf3 OAI21X1
XNAND3X1_11 _871_ vdd gnd _876_ _869_ _877_ NAND3X1
XAOI21X1_7 gnd vdd ADD<4> _843_ _878_ _877_ AOI21X1
XAOI22X1_3 gnd vdd _868_ _878_ _879_ _867_ _855_ AOI22X1
XNAND3X1_12 _808_ vdd gnd PC<7> _819_ _880_ NAND3X1
XAOI22X1_4 gnd vdd ADD<7> _849__bF$buf4 _881_ _812__bF$buf1 _856_ AOI22X1
XNAND3X1_13 _812__bF$buf3 vdd gnd PC<7> _834_ _882_ NAND3X1
XINVX2_6 vdd gnd _883_ PC<7> INVX2
XNOR2X1_20 vdd _825__bF$buf4 gnd _884_ _883_ NOR2X1
XINVX1_13 ABL<7> _885_ vdd gnd INVX1
XAOI21X1_8 gnd vdd _863_ _824_ _886_ _885_ AOI21X1
XOAI21X1_12 gnd vdd _886_ _884_ _887_ _859__bF$buf0 OAI21X1
XNAND3X1_14 _887_ vdd gnd _882_ _881_ _888_ NAND3X1
XAOI21X1_9 gnd vdd ADD<7> _843_ _889_ _888_ AOI21X1
XNAND3X1_15 _808_ vdd gnd PC<6> _819_ _890_ NAND3X1
XAOI21X1_10 gnd vdd _849__bF$buf4 ADD<6> _891_ _850_ AOI21X1
XNAND2X1_18 vdd _892_ gnd PC<6> _870_ NAND2X1
XINVX2_7 vdd gnd _893_ PC<6> INVX2
XNOR2X1_21 vdd _825__bF$buf4 gnd _894_ _893_ NOR2X1
XINVX1_14 ABL<6> _895_ vdd gnd INVX1
XAOI21X1_11 gnd vdd _863_ _824_ _896_ _895_ AOI21X1
XOAI21X1_13 gnd vdd _896_ _894_ _897_ _859__bF$buf0 OAI21X1
XNAND3X1_16 _892_ vdd gnd _897_ _891_ _898_ NAND3X1
XAOI21X1_12 gnd vdd ADD<6> _843_ _899_ _898_ AOI21X1
XAOI22X1_5 gnd vdd _890_ _899_ _900_ _889_ _880_ AOI22X1
XNAND2X1_19 vdd _901_ gnd _879_ _900_ NAND2X1
XNAND3X1_17 _808_ vdd gnd PC<0> _819_ _902_ NAND3X1
XOAI21X1_14 gnd vdd _796_ _807_ _903_ ADD<0> OAI21X1
XINVX2_8 vdd gnd _904_ ADD<0> INVX2
XINVX2_9 vdd gnd _905_ PC<0> INVX2
XOAI22X1_1 gnd vdd _815__bF$buf0 _904_ _905_ _847_ _906_ OAI22X1
XNAND2X1_20 vdd _907_ gnd ABL<0> _825__bF$buf1 NAND2X1
XOAI21X1_15 gnd vdd _905_ _825__bF$buf4 _908_ _907_ OAI21X1
XAOI21X1_13 gnd vdd _859__bF$buf0 _908_ _909_ _906_ AOI21X1
XAND2X2_2 vdd gnd _909_ _903_ _910_ AND2X2
XINVX1_15 _842_ _911_ vdd gnd INVX1
XXOR2X1_1 _912_ vdd backwards CO gnd XOR2X1
XOAI22X1_2 gnd vdd _815__bF$buf1 _912_ _822__bF$buf2 _825__bF$buf4 _913_ OAI22X1
XNOR2X1_22 vdd state<3> gnd _914_ state<2> NOR2X1
XNAND2X1_21 vdd _915_ gnd _914_ _814_ NAND2X1
XNAND3X1_18 _812__bF$buf1 vdd gnd _789_ _805_ _916_ NAND3X1
XOAI21X1_16 gnd vdd _809__bF$buf4 _915_ _917_ _916_ OAI21X1
XNOR3X1_3 vdd gnd _913_ _911_ _917_ _918_ NOR3X1
XNAND2X1_22 vdd _919_ gnd _798_ _838_ NAND2X1
XNOR2X1_23 vdd _836_ gnd _920_ _833_ NOR2X1
XINVX1_16 _920_ _921_ vdd gnd INVX1
XOAI21X1_17 gnd vdd _809__bF$buf4 _921_ _922_ _919_ OAI21X1
XNAND2X1_23 vdd _923_ gnd _810_ _914_ NAND2X1
XINVX2_10 vdd gnd _924_ _923_ INVX2
XOAI21X1_18 gnd vdd _838_ _924_ _925_ _812__bF$buf2 OAI21X1
XOAI21X1_19 gnd vdd state<5> _792_ _926_ _925_ OAI21X1
XNOR2X1_24 vdd _926_ gnd _927_ _922_ NOR2X1
XAOI22X1_6 gnd vdd _902_ _910_ _928_ _918_ _927_ AOI22X1
XOAI21X1_20 gnd vdd _796_ _807_ _929_ ADD<1> OAI21X1
XNAND3X1_19 _808_ vdd gnd PC<1> _819_ _930_ NAND3X1
XINVX2_11 vdd gnd _931_ ADD<1> INVX2
XOAI22X1_3 gnd vdd _817_ res _931_ _815__bF$buf0 _932_ OAI22X1
XINVX2_12 vdd gnd _933_ PC<1> INVX2
XNOR2X1_25 vdd _847_ gnd _934_ _933_ NOR2X1
XNOR2X1_26 vdd _932_ gnd _935_ _934_ NOR2X1
XNAND2X1_24 vdd _936_ gnd ABL<1> _825__bF$buf1 NAND2X1
XOAI21X1_21 gnd vdd _933_ _825__bF$buf1 _937_ _936_ OAI21X1
XNAND2X1_25 vdd _938_ gnd _859__bF$buf1 _937_ NAND2X1
XAND2X2_3 vdd gnd _935_ _938_ _939_ AND2X2
XNAND3X1_20 _930_ vdd gnd _929_ _939_ _940_ NAND3X1
XNAND3X1_21 _808_ vdd gnd PC<3> _819_ _941_ NAND3X1
XAOI21X1_14 gnd vdd _849__bF$buf0 ADD<3> _942_ _850_ AOI21X1
XNAND2X1_26 vdd _943_ gnd PC<3> _870_ NAND2X1
XINVX2_13 vdd gnd _944_ PC<3> INVX2
XNOR2X1_27 vdd _825__bF$buf2 gnd _945_ _944_ NOR2X1
XINVX1_17 ABL<3> _946_ vdd gnd INVX1
XAOI21X1_15 gnd vdd _863_ _824_ _947_ _946_ AOI21X1
XOAI21X1_22 gnd vdd _947_ _945_ _948_ _859__bF$buf3 OAI21X1
XNAND3X1_22 _943_ vdd gnd _948_ _942_ _949_ NAND3X1
XAOI21X1_16 gnd vdd ADD<3> _843_ _950_ _949_ AOI21X1
XNAND3X1_23 _808_ vdd gnd PC<2> _819_ _951_ NAND3X1
XNOR2X1_28 vdd _824_ gnd _952_ res NOR2X1
XINVX1_18 _952_ _953_ vdd gnd INVX1
XAOI22X1_7 gnd vdd _850_ _953_ _954_ _849__bF$buf0 ADD<2> AOI22X1
XNAND2X1_27 vdd _955_ gnd PC<2> _870_ NAND2X1
XINVX2_14 vdd gnd _956_ PC<2> INVX2
XNOR2X1_29 vdd _825__bF$buf2 gnd _957_ _956_ NOR2X1
XINVX1_19 ABL<2> _958_ vdd gnd INVX1
XAOI21X1_17 gnd vdd _863_ _824_ _959_ _958_ AOI21X1
XOAI21X1_23 gnd vdd _959_ _957_ _960_ _859__bF$buf3 OAI21X1
XNAND3X1_24 _960_ vdd gnd _955_ _954_ _961_ NAND3X1
XAOI21X1_18 gnd vdd ADD<2> _843_ _962_ _961_ AOI21X1
XAOI22X1_8 gnd vdd _951_ _962_ _963_ _950_ _941_ AOI22X1
XNAND3X1_25 _928_ vdd gnd _940_ _963_ _964_ NAND3X1
XNAND3X1_26 _808_ vdd gnd PC<11> _819_ _965_ NAND3X1
XINVX1_20 DIHOLD<3> _966_ vdd gnd INVX1
XNAND2X1_28 vdd _967_ gnd RDY_bF$buf6 DI<3> NAND2X1
XOAI21X1_24 gnd vdd RDY_bF$buf6 _966_ DIMUX<3> _967_ OAI21X1
XNAND3X1_27 _812__bF$buf3 vdd gnd ADD<3> _834_ _968_ NAND3X1
XAOI21X1_19 gnd vdd _849__bF$buf3 ABH<3> _969_ _850_ AOI21X1
XINVX1_21 ABH<3> _970_ vdd gnd INVX1
XAOI21X1_20 gnd vdd _863_ _824_ _971_ _970_ AOI21X1
XINVX2_15 vdd gnd _972_ PC<11> INVX2
XNOR2X1_30 vdd _825__bF$buf2 gnd _973_ _972_ NOR2X1
XOAI21X1_25 gnd vdd _971_ _973_ _974_ _859__bF$buf1 OAI21X1
XNAND3X1_28 _974_ vdd gnd _968_ _969_ _975_ NAND3X1
XAOI21X1_21 gnd vdd _843_ DIMUX<3> _976_ _975_ AOI21X1
XNAND3X1_29 _808_ vdd gnd PC<10> _819_ _977_ NAND3X1
XMUX2X1_1 RDY_bF$buf5 vdd gnd _978_ DI<2> DIHOLD<2> MUX2X1
XINVX2_16 vdd gnd DIMUX<2> _978_ INVX2
XNAND2X1_29 vdd _979_ gnd ADD<2> _870_ NAND2X1
XAOI21X1_22 gnd vdd _849__bF$buf1 ABH<2> _980_ _850_ AOI21X1
XINVX1_22 ABH<2> _981_ vdd gnd INVX1
XAOI21X1_23 gnd vdd _863_ _824_ _982_ _981_ AOI21X1
XINVX2_17 vdd gnd _983_ PC<10> INVX2
XNOR2X1_31 vdd _825__bF$buf1 gnd _984_ _983_ NOR2X1
XOAI21X1_26 gnd vdd _982_ _984_ _985_ _859__bF$buf1 OAI21X1
XNAND3X1_30 _979_ vdd gnd _985_ _980_ _986_ NAND3X1
XAOI21X1_24 gnd vdd _843_ DIMUX<2> _987_ _986_ AOI21X1
XAOI22X1_9 gnd vdd _977_ _987_ _988_ _976_ _965_ AOI22X1
XNAND3X1_31 _808_ vdd gnd PC<9> _819_ _989_ NAND3X1
XINVX1_23 DIHOLD<1> _990_ vdd gnd INVX1
XNAND2X1_30 vdd _991_ gnd RDY_bF$buf7 DI<1> NAND2X1
XOAI21X1_27 gnd vdd RDY_bF$buf7 _990_ DIMUX<1> _991_ OAI21X1
XNAND3X1_32 _812__bF$buf3 vdd gnd ADD<1> _834_ _992_ NAND3X1
XAOI21X1_25 gnd vdd _849__bF$buf0 ABH<1> _993_ _850_ AOI21X1
XINVX1_24 ABH<1> _994_ vdd gnd INVX1
XAOI21X1_26 gnd vdd _863_ _824_ _995_ _994_ AOI21X1
XINVX2_18 vdd gnd _996_ PC<9> INVX2
XNOR2X1_32 vdd _825__bF$buf2 gnd _997_ _996_ NOR2X1
XOAI21X1_28 gnd vdd _995_ _997_ _998_ _859__bF$buf3 OAI21X1
XNAND3X1_33 _998_ vdd gnd _992_ _993_ _999_ NAND3X1
XAOI21X1_27 gnd vdd _843_ DIMUX<1> _1000_ _999_ AOI21X1
XNAND3X1_34 _808_ vdd gnd PC<8> _819_ _1001_ NAND3X1
XINVX1_25 DIHOLD<0> _1002_ vdd gnd INVX1
XNAND2X1_31 vdd _1003_ gnd RDY_bF$buf5 DI<0> NAND2X1
XOAI21X1_29 gnd vdd RDY_bF$buf5 _1002_ DIMUX<0> _1003_ OAI21X1
XNAND2X1_32 vdd _1004_ gnd ADD<0> _870_ NAND2X1
XAOI21X1_28 gnd vdd _849__bF$buf0 ABH<0> _1005_ _850_ AOI21X1
XINVX1_26 ABH<0> _1006_ vdd gnd INVX1
XAOI21X1_29 gnd vdd _863_ _824_ _1007_ _1006_ AOI21X1
XINVX2_19 vdd gnd _1008_ PC<8> INVX2
XNOR2X1_33 vdd _825__bF$buf1 gnd _1009_ _1008_ NOR2X1
XOAI21X1_30 gnd vdd _1007_ _1009_ _1010_ _859__bF$buf1 OAI21X1
XNAND3X1_35 _1004_ vdd gnd _1010_ _1005_ _1011_ NAND3X1
XAOI21X1_30 gnd vdd _843_ DIMUX<0> _1012_ _1011_ AOI21X1
XAOI22X1_10 gnd vdd _1001_ _1012_ _1013_ _1000_ _989_ AOI22X1
XNAND2X1_33 vdd _1014_ gnd _988_ _1013_ NAND2X1
XNOR3X1_4 vdd gnd _1014_ _964_ _901_ _1015_ NOR3X1
XINVX2_20 vdd gnd _1016_ PC<12> INVX2
XINVX8_5 vdd gnd RDY_bF$buf2 _1017_ INVX8
XOR2X2_2 _1018_ DIHOLD<4> vdd gnd RDY_bF$buf5 OR2X2
XOAI21X1_31 gnd vdd _1017__bF$buf4 DI<4> _1019_ _1018_ OAI21X1
XINVX2_21 vdd gnd DIMUX<4> _1019_ INVX2
XINVX2_22 vdd gnd _1020_ ABH<4> INVX2
XOAI21X1_32 gnd vdd _1020_ _815__bF$buf0 _1021_ _817_ OAI21X1
XAOI21X1_31 gnd vdd ADD<4> _870_ _1022_ _1021_ AOI21X1
XNOR2X1_34 vdd _825__bF$buf1 gnd _1023_ _1016_ NOR2X1
XNOR2X1_35 vdd _830__bF$buf0 gnd _1024_ _1020_ NOR2X1
XOAI21X1_33 gnd vdd _1023_ _1024_ _1025_ _859__bF$buf1 OAI21X1
XNAND2X1_34 vdd _1026_ gnd _1025_ _1022_ NAND2X1
XAOI21X1_32 gnd vdd _843_ DIMUX<4> _1027_ _1026_ AOI21X1
XOAI21X1_34 gnd vdd _1016_ _820_ _1028_ _1027_ OAI21X1
XAOI21X1_33 gnd vdd _1015_ _1028_ _1029_ _854_ AOI21X1
XAND2X2_4 vdd gnd _879_ _900_ _1030_ AND2X2
XNAND2X1_35 vdd _1031_ gnd _940_ _928_ NAND2X1
XINVX1_27 _941_ _1032_ vdd gnd INVX1
XOAI21X1_35 gnd vdd _796_ _807_ _1033_ ADD<3> OAI21X1
XAND2X2_5 vdd gnd _942_ _943_ _1034_ AND2X2
XNAND3X1_36 _948_ vdd gnd _1033_ _1034_ _1035_ NAND3X1
XINVX1_28 _951_ _1036_ vdd gnd INVX1
XOAI21X1_36 gnd vdd _796_ _807_ _1037_ ADD<2> OAI21X1
XAND2X2_6 vdd gnd _954_ _955_ _1038_ AND2X2
XNAND3X1_37 _960_ vdd gnd _1037_ _1038_ _1039_ NAND3X1
XOAI22X1_4 gnd vdd _1039_ _1036_ _1035_ _1032_ _1040_ OAI22X1
XNOR2X1_36 vdd _1031_ gnd _1041_ _1040_ NOR2X1
XAND2X2_7 vdd gnd _988_ _1013_ _1042_ AND2X2
XNAND3X1_38 _1042_ vdd gnd _1030_ _1041_ _1043_ NAND3X1
XNAND2X1_36 vdd _1044_ gnd _1028_ _854_ NAND2X1
XOAI21X1_37 gnd vdd _1044_ _1043_ _1045_ RDY_bF$buf3 OAI21X1
XOAI22X1_5 gnd vdd _1045_ _1029_ _787_ RDY_bF$buf5 _9_<13> OAI22X1
XNAND2X1_37 vdd _1046_ gnd PC<14> _1017__bF$buf4 NAND2X1
XNOR2X1_37 vdd _1043_ gnd _1047_ _1044_ NOR2X1
XOAI21X1_38 gnd vdd _826_ _821_ _1048_ PC<14> OAI21X1
XINVX1_29 ABH<6> _1049_ vdd gnd INVX1
XOAI21X1_39 gnd vdd _1049_ _815__bF$buf0 _1050_ _817_ OAI21X1
XAOI21X1_34 gnd vdd ADD<6> _870_ _1051_ _1050_ AOI21X1
XMUX2X1_2 RDY_bF$buf0 vdd gnd _1052_ DI<6> DIHOLD<6> MUX2X1
XINVX2_23 vdd gnd DIMUX<6> _1052_ INVX2
XAOI22X1_11 gnd vdd DIMUX<6> _843_ _1053_ ABH<6> _831_ AOI22X1
XNAND3X1_39 _1053_ vdd gnd _1051_ _1048_ _1054_ NAND3X1
XNOR2X1_38 vdd _1047_ gnd _1055_ _1054_ NOR2X1
XAND2X2_8 vdd gnd _854_ _1028_ _1056_ AND2X2
XNAND3X1_40 _1054_ vdd gnd _1056_ _1015_ _1057_ NAND3X1
XNAND2X1_38 vdd _1058_ gnd RDY_bF$buf3 _1057_ NAND2X1
XOAI21X1_40 gnd vdd _1058_ _1055_ _9_<14> _1046_ OAI21X1
XINVX1_30 PC<15> _1059_ vdd gnd INVX1
XOAI21X1_41 gnd vdd _826_ _821_ _1060_ PC<15> OAI21X1
XINVX1_31 ABH<7> _1061_ vdd gnd INVX1
XOAI21X1_42 gnd vdd _1061_ _815__bF$buf0 _1062_ _817_ OAI21X1
XAOI21X1_35 gnd vdd ABH<7> _831_ _1063_ _1062_ AOI21X1
XMUX2X1_3 RDY_bF$buf5 vdd gnd _1064_ DI<7> DIHOLD<7> MUX2X1
XINVX2_24 vdd gnd DIMUX<7> _1064_ INVX2
XAOI22X1_12 gnd vdd DIMUX<7> _843_ _1065_ ADD<7> _870_ AOI22X1
XNAND3X1_41 _1065_ vdd gnd _1063_ _1060_ _1066_ NAND3X1
XINVX1_32 _1066_ _1067_ vdd gnd INVX1
XNAND3X1_42 _1067_ vdd gnd _1054_ _1047_ _1068_ NAND3X1
XAOI21X1_36 gnd vdd _1057_ _1066_ _1069_ _1017__bF$buf4 AOI21X1
XAOI22X1_13 gnd vdd _1068_ _1069_ _9_<15> _1017__bF$buf4 _1059_ AOI22X1
XNOR2X1_39 vdd _822__bF$buf0 gnd _1070_ _1017__bF$buf3 NOR2X1
XNAND2X1_39 vdd _1071_ gnd _914_ _801_ NAND2X1
XNOR2X1_40 vdd _1071_ gnd _1072_ _799__bF$buf0 NOR2X1
XINVX4_2 vdd gnd _1073_ IRHOLD_valid INVX4
XINVX1_33 IRHOLD<3> _1074_ vdd gnd INVX1
XNAND2X1_40 vdd _1075_ gnd _1073_ DIMUX<3> NAND2X1
XOAI21X1_43 gnd vdd _1073_ _1074_ _1076_ _1075_ OAI21X1
XNAND2X1_41 vdd _1077_ gnd _830__bF$buf3 _1076_ NAND2X1
XNAND2X1_42 vdd _1078_ gnd IRHOLD_valid IRHOLD<2> NAND2X1
XOAI21X1_44 gnd vdd IRHOLD_valid _978_ _1079_ _1078_ OAI21X1
XAND2X2_9 vdd gnd _1079_ _830__bF$buf3 _1080_ AND2X2
XNOR2X1_41 vdd _1077_ gnd _1081_ _1080_ NOR2X1
XMUX2X1_4 _1073_ vdd gnd _1082_ DIMUX<1> IRHOLD<1> MUX2X1
XNOR2X1_42 vdd _1082_ gnd _1083_ _825__bF$buf3 NOR2X1
XMUX2X1_5 _1073_ vdd gnd _1084_ DIMUX<0> IRHOLD<0> MUX2X1
XNOR2X1_43 vdd _1084_ gnd _1085_ _825__bF$buf3 NOR2X1
XNOR2X1_44 vdd _1085_ gnd _1086_ _1083_ NOR2X1
XNAND2X1_43 vdd _1087_ gnd _1086_ _1081_ NAND2X1
XNAND2X1_44 vdd _1088_ gnd IRHOLD_valid IRHOLD<7> NAND2X1
XOAI21X1_45 gnd vdd IRHOLD_valid _1064_ _1089_ _1088_ OAI21X1
XNAND2X1_45 vdd _1090_ gnd _830__bF$buf0 _1089_ NAND2X1
XNAND2X1_46 vdd _1091_ gnd IRHOLD_valid IRHOLD<4> NAND2X1
XOAI21X1_46 gnd vdd IRHOLD_valid _1019_ _1092_ _1091_ OAI21X1
XMUX2X1_6 _1073_ vdd gnd _1093_ DIMUX<5> IRHOLD<5> MUX2X1
XNOR2X1_45 vdd _1093_ gnd _1094_ _825__bF$buf0 NOR2X1
XAOI21X1_37 gnd vdd _830__bF$buf2 _1092_ _1095_ _1094_ AOI21X1
XNAND2X1_47 vdd _1096_ gnd _1090_ _1095_ NAND2X1
XNOR2X1_46 vdd _1087_ gnd _1097_ _1096_ NOR2X1
XAOI22X1_14 gnd vdd _1070__bF$buf3 _1097_ _1098_ _1017__bF$buf7 _1072_ AOI22X1
XNOR2X1_47 vdd _921_ gnd _1099_ _809__bF$buf0 NOR2X1
XINVX4_3 vdd gnd _1100_ _1099_ INVX4
XINVX8_6 vdd gnd _1070__bF$buf1 _1101_ INVX8
XAND2X2_10 vdd gnd _1092_ _830__bF$buf2 _1102_ AND2X2
XOAI21X1_47 gnd vdd _1079_ _1076_ _1103_ _830__bF$buf3 OAI21X1
XNAND3X1_43 _1103_ vdd gnd _1102_ _1086_ _1104_ NAND3X1
XOAI22X1_6 gnd vdd _1104_ _1101__bF$buf3 RDY_bF$buf1 _1100_ _1105_ OAI22X1
XINVX1_34 _914_ _1106_ vdd gnd INVX1
XNOR2X1_48 vdd _1106_ gnd _1107_ _836_ NOR2X1
XNOR2X1_49 vdd _793_ gnd _1108_ _797_ NOR2X1
XNAND2X1_48 vdd _1109_ gnd _1108_ _1107_ NAND2X1
XNAND3X1_44 _914_ vdd gnd _810_ _1108_ _1110_ NAND3X1
XINVX1_35 _1110_ _1111_ vdd gnd INVX1
XNAND2X1_49 vdd _1112_ gnd RDY_bF$buf4 _1111_ NAND2X1
XOAI21X1_48 gnd vdd RDY_bF$buf4 _1109_ _1113_ _1112_ OAI21X1
XNAND2X1_50 vdd _1114_ gnd _794_ _1107_ NAND2X1
XNAND2X1_51 vdd _1115_ gnd _794_ _924_ NAND2X1
XMUX2X1_7 _1017__bF$buf0 vdd gnd _1116_ _1114_ _1115_ MUX2X1
XNOR2X1_50 vdd _1113_ gnd _1117_ _1116_ NOR2X1
XOAI21X1_49 gnd vdd _799__bF$buf1 _806_ _1118_ _1017__bF$buf0 OAI21X1
XNAND2X1_52 vdd _1119_ gnd _810_ _805_ NAND2X1
XOAI21X1_50 gnd vdd _799__bF$buf1 _1119_ _1120_ RDY_bF$buf2 OAI21X1
XAND2X2_11 vdd gnd _1118_ _1120_ _1121_ AND2X2
XNAND2X1_53 vdd _1122_ gnd _812__bF$buf2 _841_ NAND2X1
XNOR2X1_51 vdd _1119_ gnd _1123_ _809__bF$buf3 NOR2X1
XNAND2X1_54 vdd _1124_ gnd RDY_bF$buf8 _1123_ NAND2X1
XOAI21X1_51 gnd vdd RDY_bF$buf4 _1122_ _1125_ _1124_ OAI21X1
XNOR2X1_52 vdd _1125_ gnd _1126_ _1121_ NOR2X1
XNOR2X1_53 vdd _1119_ gnd _1127_ _795__bF$buf2 NOR2X1
XOAI21X1_52 gnd vdd _795__bF$buf2 _806_ _1128_ _1017__bF$buf0 OAI21X1
XOAI21X1_53 gnd vdd _1017__bF$buf0 _1127_ _1129_ _1128_ OAI21X1
XNOR2X1_54 vdd _1071_ gnd _1130_ _809__bF$buf0 NOR2X1
XOAI21X1_54 gnd vdd _809__bF$buf0 _923_ _1131_ RDY_bF$buf4 OAI21X1
XOAI21X1_55 gnd vdd RDY_bF$buf4 _1130_ _1132_ _1131_ OAI21X1
XAND2X2_12 vdd gnd _1129_ _1132_ _1133_ AND2X2
XNAND3X1_45 _1117_ vdd gnd _1133_ _1126_ _1134_ NAND3X1
XNOR2X1_55 vdd _1105_ gnd _1135_ _1134_ NOR2X1
XOAI21X1_56 gnd vdd _1092_ _1076_ _1136_ _830__bF$buf2 OAI21X1
XNOR2X1_56 vdd _837_ gnd _1137_ _788_ NOR2X1
XINVX2_25 vdd gnd _1138_ _1137_ INVX2
XNOR2X1_57 vdd _1138_ gnd _1139_ _799__bF$buf2 NOR2X1
XNAND2X1_55 vdd _1140_ gnd _830__bF$buf3 _1079_ NAND2X1
XNOR2X1_58 vdd _1101__bF$buf1 gnd _1141_ _1140_ NOR2X1
XAOI22X1_15 gnd vdd _1136_ _1141_ _1142_ _1017__bF$buf7 _1139_ AOI22X1
XNAND2X1_56 vdd _1143_ gnd _812__bF$buf2 _1137_ NAND2X1
XINVX1_36 _1143_ _1144_ vdd gnd INVX1
XNAND2X1_57 vdd _1145_ gnd _802_ _814_ NAND2X1
XOAI21X1_57 gnd vdd _809__bF$buf1 _1145_ _1146_ RDY_bF$buf8 OAI21X1
XOAI21X1_58 gnd vdd RDY_bF$buf8 _1144_ _1147_ _1146_ OAI21X1
XNAND2X1_58 vdd _1148_ gnd _1147_ _1142_ NAND2X1
XNOR2X1_59 vdd _848_ gnd _1149_ _833_ NOR2X1
XNAND2X1_59 vdd _1150_ gnd _794_ _1149_ NAND2X1
XNAND2X1_60 vdd _1151_ gnd RDY_bF$buf2 _1150_ NAND2X1
XOAI21X1_59 gnd vdd RDY_bF$buf2 _796_ _1152_ _1151_ OAI21X1
XINVX1_37 _1152_ _1153_ vdd gnd INVX1
XNAND2X1_61 vdd _1154_ gnd _798_ _1149_ NAND2X1
XNOR2X1_60 vdd _792_ gnd _1155_ _799__bF$buf0 NOR2X1
XNAND2X1_62 vdd _1156_ gnd _1017__bF$buf2 _1155_ NAND2X1
XOAI21X1_60 gnd vdd _1017__bF$buf2 _1154_ _1157_ _1156_ OAI21X1
XOR2X2_3 _1158_ _1157_ vdd gnd _1153_ OR2X2
XNOR2X1_61 vdd _1158_ gnd _1159_ _1148_ NOR2X1
XNAND2X1_63 vdd _1160_ gnd _798_ _856_ NAND2X1
XNAND2X1_64 vdd _1161_ gnd _789_ _805_ NAND2X1
XNOR2X1_62 vdd _1161_ gnd _1162_ _799__bF$buf1 NOR2X1
XNAND2X1_65 vdd _1163_ gnd _1017__bF$buf0 _1162_ NAND2X1
XOAI21X1_61 gnd vdd _1017__bF$buf0 _1160_ _1164_ _1163_ OAI21X1
XMUX2X1_8 RDY_bF$buf4 vdd gnd _1165_ _817_ _916_ MUX2X1
XOR2X2_4 _1166_ _1165_ vdd gnd _1164_ OR2X2
XNAND2X1_66 vdd _1167_ gnd RDY_bF$buf7 _912_ NAND2X1
XOAI22X1_7 gnd vdd _1167_ _815__bF$buf1 RDY_bF$buf7 _847_ _1168_ OAI22X1
XINVX1_38 _1168_ _1169_ vdd gnd INVX1
XNOR2X1_63 vdd _1161_ gnd _1170_ _795__bF$buf0 NOR2X1
XNAND2X1_67 vdd _1171_ gnd _805_ _814_ NAND2X1
XOAI21X1_62 gnd vdd _795__bF$buf0 _1171_ _1172_ RDY_bF$buf2 OAI21X1
XOAI21X1_63 gnd vdd RDY_bF$buf2 _1170_ _1173_ _1172_ OAI21X1
XNAND2X1_68 vdd _1174_ gnd _1173_ _1169_ NAND2X1
XNOR2X1_64 vdd _1166_ gnd _1176_ _1174_ NOR2X1
XNAND2X1_69 vdd _1177_ gnd _1176_ _1159_ NAND2X1
XNAND2X1_70 vdd _1178_ gnd _830__bF$buf1 _1092_ NAND2X1
XINVX2_26 vdd gnd _1179_ DIMUX<3> INVX2
XOAI21X1_64 gnd vdd _1073_ IRHOLD<3> _1180_ _830__bF$buf0 OAI21X1
XAOI21X1_38 gnd vdd _1073_ _1179_ _1181_ _1180_ AOI21X1
XNAND2X1_71 vdd _1182_ gnd _1140_ _1181_ NAND2X1
XOAI21X1_65 gnd vdd _825__bF$buf3 _1082_ _1183_ _1085_ OAI21X1
XNOR2X1_65 vdd _1182_ gnd _1184_ _1183_ NOR2X1
XNAND2X1_72 vdd _1185_ gnd _1178_ _1184_ NAND2X1
XNAND2X1_73 vdd _1186_ gnd _1140_ _1077_ NAND2X1
XNOR2X1_66 vdd _1102_ gnd _1187_ _1090_ NOR2X1
XOAI21X1_66 gnd vdd _825__bF$buf3 _1084_ _1188_ _1187_ OAI21X1
XOAI21X1_67 gnd vdd _1186_ _1188_ _1189_ _1185_ OAI21X1
XOAI21X1_68 gnd vdd _920_ _1107_ _1190_ _794_ OAI21X1
XINVX1_39 _1145_ _1191_ vdd gnd INVX1
XNAND2X1_74 vdd _1192_ gnd _798_ _1191_ NAND2X1
XNAND3X1_46 _1190_ vdd gnd _839_ _1192_ _1193_ NAND3X1
XOAI21X1_69 gnd vdd _809__bF$buf0 _1071_ _1194_ _1109_ OAI21X1
XNAND2X1_75 vdd _1195_ gnd _800_ _813_ NAND2X1
XNOR2X1_67 vdd _1195_ gnd _1196_ _833_ NOR2X1
XNAND2X1_76 vdd _1197_ gnd _812__bF$buf0 _1196_ NAND2X1
XOAI21X1_70 gnd vdd _799__bF$buf0 _1138_ _1198_ _1197_ OAI21X1
XNOR2X1_68 vdd _1194_ gnd _1199_ _1198_ NOR2X1
XNAND3X1_47 _1193_ vdd gnd RDY_bF$buf8 _1199_ _1200_ NAND3X1
XNAND3X1_48 _810_ vdd gnd _802_ _798_ _1201_ NAND3X1
XINVX1_40 _1201_ _1202_ vdd gnd INVX1
XNAND2X1_77 vdd _1203_ gnd RDY_bF$buf7 _1202_ NAND2X1
XOAI21X1_71 gnd vdd RDY_bF$buf7 _919_ _1204_ _1203_ OAI21X1
XNAND2X1_78 vdd _1205_ gnd _812__bF$buf0 _838_ NAND2X1
XNAND2X1_79 vdd _1206_ gnd _794_ _1196_ NAND2X1
XNOR2X1_69 vdd CO gnd _1207_ store NOR2X1
XNAND2X1_80 vdd _1208_ gnd RDY_bF$buf0 _1207_ NAND2X1
XOAI22X1_8 gnd vdd _1206_ _1208_ RDY_bF$buf0 _1205_ _1209_ OAI22X1
XNOR2X1_70 vdd _1106_ gnd _1210_ _788_ NOR2X1
XNAND2X1_81 vdd _1211_ gnd _812__bF$buf0 _1210_ NAND2X1
XINVX1_41 write_back _1212_ vdd gnd INVX1
XAND2X2_13 vdd gnd _1207_ _1212_ _1213_ AND2X2
XNAND2X1_82 vdd _1214_ gnd RDY_bF$buf0 _1213_ NAND2X1
XNOR2X1_71 vdd _1211_ gnd _1215_ _1214_ NOR2X1
XOR2X2_5 _1216_ _1209_ vdd gnd _1215_ OR2X2
XNOR2X1_72 vdd _1216_ gnd _1217_ _1204_ NOR2X1
XOR2X2_6 _1218_ _1198_ vdd gnd _1194_ OR2X2
XNAND3X1_49 _1212_ vdd gnd RDY_bF$buf1 _1218_ _1219_ NAND3X1
XNAND3X1_50 _1219_ vdd gnd _1200_ _1217_ _1220_ NAND3X1
XAOI21X1_39 gnd vdd _1189_ _1070__bF$buf4 _1221_ _1220_ AOI21X1
XNAND2X1_83 vdd _1222_ gnd _1103_ _1086_ NAND2X1
XOAI21X1_72 gnd vdd _1089_ _1092_ _1223_ _830__bF$buf2 OAI21X1
XNAND2X1_84 vdd _1224_ gnd IRHOLD_valid IRHOLD<6> NAND2X1
XOAI21X1_73 gnd vdd IRHOLD_valid _1052_ _1225_ _1224_ OAI21X1
XNAND2X1_85 vdd _1226_ gnd _830__bF$buf1 _1225_ NAND2X1
XNOR2X1_73 vdd _1094_ gnd _1227_ _1226_ NOR2X1
XNAND2X1_86 vdd _1228_ gnd _1223_ _1227_ NAND2X1
XNOR3X1_5 vdd gnd _1228_ _1222_ _1101__bF$buf1 _1229_ NOR3X1
XNAND3X1_51 _798_ vdd gnd _791_ _801_ _1230_ NAND3X1
XNOR2X1_74 vdd _1230_ gnd _1231_ RDY_bF$buf4 NOR2X1
XOAI21X1_74 gnd vdd _1207_ _1206_ _1232_ RDY_bF$buf0 OAI21X1
XOAI21X1_75 gnd vdd _795__bF$buf4 _921_ _1233_ _1017__bF$buf2 OAI21X1
XAND2X2_14 vdd gnd _1232_ _1233_ _1234_ AND2X2
XNOR3X1_6 vdd gnd _1234_ _1229_ _1231_ _1235_ NOR3X1
XNAND2X1_87 vdd _1236_ gnd _914_ _789_ NAND2X1
XNOR2X1_75 vdd _799__bF$buf2 gnd _1237_ _1236_ NOR2X1
XNAND2X1_88 vdd _1238_ gnd _1017__bF$buf6 _1237_ NAND2X1
XNAND3X1_52 write_back vdd gnd RDY_bF$buf1 _1218_ _1239_ NAND3X1
XNOR2X1_76 vdd _795__bF$buf1 gnd _1240_ _1236_ NOR2X1
XOAI21X1_76 gnd vdd _795__bF$buf1 _915_ _1241_ RDY_bF$buf4 OAI21X1
XOAI21X1_77 gnd vdd RDY_bF$buf8 _1240_ _1242_ _1241_ OAI21X1
XNAND3X1_53 _1242_ vdd gnd _1238_ _1239_ _1243_ NAND3X1
XNAND3X1_54 _810_ vdd gnd _802_ _794_ _1244_ NAND3X1
XINVX2_27 vdd gnd _1245_ _1244_ INVX2
XOAI21X1_78 gnd vdd _795__bF$buf0 _803_ _1246_ _1017__bF$buf0 OAI21X1
XOAI21X1_79 gnd vdd _1017__bF$buf0 _1245_ _1247_ _1246_ OAI21X1
XNOR2X1_77 vdd _915_ gnd _1248_ _809__bF$buf1 NOR2X1
XOAI21X1_80 gnd vdd _809__bF$buf1 _1236_ _1249_ _1017__bF$buf5 OAI21X1
XOAI21X1_81 gnd vdd _1017__bF$buf5 _1248_ _1250_ _1249_ OAI21X1
XNOR2X1_78 vdd _1145_ gnd _1251_ _795__bF$buf4 NOR2X1
XOAI21X1_82 gnd vdd _795__bF$buf1 _1138_ _1252_ _1017__bF$buf5 OAI21X1
XOAI21X1_83 gnd vdd _1017__bF$buf5 _1251_ _1253_ _1252_ OAI21X1
XNAND3X1_55 _1250_ vdd gnd _1247_ _1253_ _1254_ NAND3X1
XNOR2X1_79 vdd _1243_ gnd _1255_ _1254_ NOR2X1
XNAND3X1_56 _1235_ vdd gnd _1255_ _1221_ _1256_ NAND3X1
XNOR2X1_80 vdd _1256_ gnd _1257_ _1177_ NOR2X1
XNAND3X1_57 _1135_ vdd gnd _1098_ _1257_ _1438_<0> NAND3X1
XINVX1_42 _1243_ _1258_ vdd gnd INVX1
XNAND3X1_58 _1253_ vdd gnd _1250_ _1258_ _1259_ NAND3X1